(PID.TID 0000.0001) 
(PID.TID 0000.0001) // ======================================================
(PID.TID 0000.0001) //                      MITgcm UV
(PID.TID 0000.0001) //                      =========
(PID.TID 0000.0001) // ======================================================
(PID.TID 0000.0001) // execution environment starting up...
(PID.TID 0000.0001) 
(PID.TID 0000.0001) // Build user:        jahn
(PID.TID 0000.0001) // Build host:        node205
(PID.TID 0000.0001) // Build date:        Fri Aug  1 11:33:30 EDT 2014
(PID.TID 0000.0001) 
(PID.TID 0000.0001) // =======================================================
(PID.TID 0000.0001) // Execution Environment parameter file "eedata"
(PID.TID 0000.0001) // =======================================================
(PID.TID 0000.0001) ># Example "eedata" file
(PID.TID 0000.0001) ># Lines beginning "#" are comments
(PID.TID 0000.0001) ># nTx - No. threads per process in X
(PID.TID 0000.0001) ># nTy - No. threads per process in Y
(PID.TID 0000.0001) > &EEPARMS
(PID.TID 0000.0001) > nTx=1,nTy=1
(PID.TID 0000.0001) > /
(PID.TID 0000.0001) ># Note: Some systems use & as the
(PID.TID 0000.0001) ># namelist terminator. Other systems
(PID.TID 0000.0001) ># use a / character (as shown here).
(PID.TID 0000.0001) 
(PID.TID 0000.0001) // =======================================================
(PID.TID 0000.0001) // Computational Grid Specification ( see files "SIZE.h" )
(PID.TID 0000.0001) //                                  ( and "eedata"       )
(PID.TID 0000.0001) // =======================================================
(PID.TID 0000.0001)      nPx =    8 ; /* No. processes in X */
(PID.TID 0000.0001)      nPy =    4 ; /* No. processes in Y */
(PID.TID 0000.0001)      nSx =    1 ; /* No. tiles in X per process */
(PID.TID 0000.0001)      nSy =    1 ; /* No. tiles in Y per process */
(PID.TID 0000.0001)      sNx =   45 ; /* Tile size in X */
(PID.TID 0000.0001)      sNy =   40 ; /* Tile size in Y */
(PID.TID 0000.0001)      OLx =    4 ; /* Tile overlap distance in X */
(PID.TID 0000.0001)      OLy =    4 ; /* Tile overlap distance in Y */
(PID.TID 0000.0001)      nTx =    1 ; /* No. threads in X per process */
(PID.TID 0000.0001)      nTy =    1 ; /* No. threads in Y per process */
(PID.TID 0000.0001)       Nr =   23 ; /* No. levels in the vertical   */
(PID.TID 0000.0001)       Nx =  360 ; /* Total domain size in X ( = nPx*nSx*sNx ) */
(PID.TID 0000.0001)       Ny =  160 ; /* Total domain size in Y ( = nPy*nSy*sNy ) */
(PID.TID 0000.0001)   nTiles =    1 ; /* Total no. tiles per process ( = nSx*nSy ) */
(PID.TID 0000.0001)   nProcs =   32 ; /* Total no. processes ( = nPx*nPy ) */
(PID.TID 0000.0001) nThreads =    1 ; /* Total no. threads per process ( = nTx*nTy ) */
(PID.TID 0000.0001) usingMPI =    T ; /* Flag used to control whether MPI is in use */
(PID.TID 0000.0001)                   /*  note: To execute a program with MPI calls */
(PID.TID 0000.0001)                   /*  it must be launched appropriately e.g     */
(PID.TID 0000.0001)                   /*  "mpirun -np 64 ......"                    */
(PID.TID 0000.0001) useCoupler=    F ;/* Flag used to control communications with   */
(PID.TID 0000.0001)                   /*  other model components, through a coupler */
(PID.TID 0000.0001) debugMode =    F ; /* print debug msg. (sequence of S/R calls)  */
(PID.TID 0000.0001) printMapIncludesZeros=    F ; /* print zeros in Std.Output maps */
(PID.TID 0000.0001) maxLengthPrt1D=   65 /* maxLength of 1D array printed to StdOut */
(PID.TID 0000.0001) 
(PID.TID 0000.0001) ======= Starting MPI parallel Run =========
(PID.TID 0000.0001)  My Processor Name (len:  7 ) = node205
(PID.TID 0000.0001)  Located at (  0,  0) on processor grid (0:  7,0:  3)
(PID.TID 0000.0001)  Origin at  (     1,     1) on global grid (1:   360,1:   160)
(PID.TID 0000.0001)  North neighbor = processor 0001
(PID.TID 0000.0001)  South neighbor = processor 0003
(PID.TID 0000.0001)   East neighbor = processor 0004
(PID.TID 0000.0001)   West neighbor = processor 0028
(PID.TID 0000.0001) // ======================================================
(PID.TID 0000.0001) // Mapping of tiles to threads
(PID.TID 0000.0001) // ======================================================
(PID.TID 0000.0001) // -o- Thread   1, tiles (   1:   1,   1:   1)
(PID.TID 0000.0001) 
(PID.TID 0000.0001) // ======================================================
(PID.TID 0000.0001) // Tile <-> Tile connectvity table
(PID.TID 0000.0001) // ======================================================
(PID.TID 0000.0001) // Tile number: 000001 (process no. = 000000)
(PID.TID 0000.0001) //        WEST: Tile = 000008, Process = 000028, Comm = messages
(PID.TID 0000.0001) //                bi = 000001, bj = 000001
(PID.TID 0000.0001) //        EAST: Tile = 000002, Process = 000004, Comm = messages
(PID.TID 0000.0001) //                bi = 000001, bj = 000001
(PID.TID 0000.0001) //       SOUTH: Tile = 000025, Process = 000003, Comm = messages
(PID.TID 0000.0001) //                bi = 000001, bj = 000001
(PID.TID 0000.0001) //       NORTH: Tile = 000009, Process = 000001, Comm = messages
(PID.TID 0000.0001) //                bi = 000001, bj = 000001
(PID.TID 0000.0001) 
(PID.TID 0000.0001)  INI_PARMS: opening model parameter file "data"
(PID.TID 0000.0001)  OPEN_COPY_DATA_FILE: opening file data
(PID.TID 0000.0001) // =======================================================
(PID.TID 0000.0001) // Removing comments from "data"
(PID.TID 0000.0001) // =======================================================
(PID.TID 0000.0001)    1 &PARM01
(PID.TID 0000.0001)    2 tRef= 24.0 , 23.0 , 22.0 , 21.0 , 20.0 ,
(PID.TID 0000.0001)    3       19.0 , 18.0 , 17.0 , 16.0 , 15.0 ,
(PID.TID 0000.0001)    4       14.0 , 13.0 , 12.0 , 11.0 , 10.0 ,
(PID.TID 0000.0001)    5        9.0 ,  8.0 ,  7.0 ,  6.0,   5.0 ,
(PID.TID 0000.0001)    6        4.0 ,  3.0 ,  2.0 ,
(PID.TID 0000.0001)    7 sRef= 34.65, 34.75, 34.82, 34.87, 34.90,
(PID.TID 0000.0001)    8       34.90, 34.86, 34.78, 34.69, 34.60,
(PID.TID 0000.0001)    9       34.58, 34.62, 34.68, 34.72, 34.73,
(PID.TID 0000.0001)   10       34.74, 34.73, 34.73, 34.72, 34.72,
(PID.TID 0000.0001)   11       34.71, 34.70, 34.69,
(PID.TID 0000.0001)   12 no_slip_sides=.false.,
(PID.TID 0000.0001)   13 no_slip_bottom=.TRUE.,
(PID.TID 0000.0001)   14 viscAz=1.E-3,
(PID.TID 0000.0001)   15 viscAh=1.E4,
(PID.TID 0000.0001)   16 diffKhT=1.E2,
(PID.TID 0000.0001)   17 diffKzT=1.E-5,
(PID.TID 0000.0001)   18 diffKhS=1.E2,
(PID.TID 0000.0001)   19 diffKzS=1.E-5,
(PID.TID 0000.0001)   20 beta=1.E-11,
(PID.TID 0000.0001)   21 tAlpha=2.E-4,
(PID.TID 0000.0001)   22 sBeta =7.4E-4,
(PID.TID 0000.0001)   23 gravity=9.81,
(PID.TID 0000.0001)   24 gBaro=9.81,
(PID.TID 0000.0001)   25 rigidLid=.FALSE.,
(PID.TID 0000.0001)   26 implicitFreeSurface=.true.,
(PID.TID 0000.0001)   27 eosType='POLY3',
(PID.TID 0000.0001)   28 saltStepping=.TRUE.,
(PID.TID 0000.0001)   29 tempStepping=.TRUE.,
(PID.TID 0000.0001)   30 momStepping=.TRUE.,
(PID.TID 0000.0001)   31 implicitDiffusion=.true.,
(PID.TID 0000.0001)   32 implicitViscosity=.true.,
(PID.TID 0000.0001)   33 allowFreezing=.false.,
(PID.TID 0000.0001)   34 useSingleCpuIO=.TRUE.,
(PID.TID 0000.0001)   35 useCDscheme=.FALSE.,
(PID.TID 0000.0001)   36 tempAdvScheme = 3,
(PID.TID 0000.0001)   37 saltAdvScheme = 3,
(PID.TID 0000.0001)   38 readBinaryPrec= 64,
(PID.TID 0000.0001)   39 writeBinaryPrec= 64,
(PID.TID 0000.0001)   40 /
(PID.TID 0000.0001)   41
(PID.TID 0000.0001)   42 &PARM02
(PID.TID 0000.0001)   43 cg2dMaxIters=300,
(PID.TID 0000.0001)   44 cg2dTargetResidual=1.E-7,
(PID.TID 0000.0001)   45 /
(PID.TID 0000.0001)   46
(PID.TID 0000.0001)   47 &PARM03
(PID.TID 0000.0001)   48  nIter0=0,
(PID.TID 0000.0001)   49  nTimeSteps=4,
(PID.TID 0000.0001)   50  deltaTmom=10800.,
(PID.TID 0000.0001)   51  deltaTtracer=10800.,
(PID.TID 0000.0001)   52  deltaTClock =10800.,
(PID.TID 0000.0001)   53  abEps=0.1,
(PID.TID 0000.0001)   54  pChkptFreq  = 31104000.,
(PID.TID 0000.0001)   55  chkptFreq   = 31104000.,
(PID.TID 0000.0001)   56  dumpFreq    = 31104000.,
(PID.TID 0000.0001)   57  taveFreq    = 31104000.,
(PID.TID 0000.0001)   58  monitorFreq = 2592000.,
(PID.TID 0000.0001)   59  monitorFreq = 1.,
(PID.TID 0000.0001)   60  tauThetaClimRelax=0.,
(PID.TID 0000.0001)   61  tauSaltClimRelax=0.,
(PID.TID 0000.0001)   62  periodicExternalForcing=.TRUE.,
(PID.TID 0000.0001)   63  externForcingPeriod=2592000.,
(PID.TID 0000.0001)   64  externForcingCycle=31104000.,
(PID.TID 0000.0001)   65 /
(PID.TID 0000.0001)   66
(PID.TID 0000.0001)   67 &PARM04
(PID.TID 0000.0001)   68 usingCartesianGrid=.FALSE.,
(PID.TID 0000.0001)   69 usingSphericalPolarGrid=.TRUE.,
(PID.TID 0000.0001)   70 delX=360*1.E0,
(PID.TID 0000.0001)   71 delY=160*1.E0,
(PID.TID 0000.0001)   72 delZ=10.,10.,15.,20.,20.,25.,35.,50.,75.,
(PID.TID 0000.0001)   73 100.,150.,200.,275.,350.,415.,450.,500.,
(PID.TID 0000.0001)   74 500.,500.,500.,500.,500.,500.,
(PID.TID 0000.0001)   75 xgOrigin=0,
(PID.TID 0000.0001)   76 ygOrigin=-80.,
(PID.TID 0000.0001)   77 /
(PID.TID 0000.0001)   78
(PID.TID 0000.0001)   79 &PARM05
(PID.TID 0000.0001)   80 bathyFile=       '../../../input/eccov3_R8/bathy_fl.bin',
(PID.TID 0000.0001)   81 zonalWindFile=   '',
(PID.TID 0000.0001)   82 meridWindFile=   '',
(PID.TID 0000.0001)   83 thetaClimFile=   '',
(PID.TID 0000.0001)   84 saltClimFile=    '',
(PID.TID 0000.0001)   85 surfQFile=       '',
(PID.TID 0000.0001)   86 EmPmRFile=       '',
(PID.TID 0000.0001)   87 /
(PID.TID 0000.0001) // =======================================================
(PID.TID 0000.0001) // Parameter file "data"
(PID.TID 0000.0001) // =======================================================
(PID.TID 0000.0001) >#
(PID.TID 0000.0001) ># ******************************
(PID.TID 0000.0001) ># Model parameters
(PID.TID 0000.0001) ># Continuous equation parameters
(PID.TID 0000.0001) ># ******************************
(PID.TID 0000.0001) >&PARM01
(PID.TID 0000.0001) >tRef= 24.0 , 23.0 , 22.0 , 21.0 , 20.0 ,
(PID.TID 0000.0001) >      19.0 , 18.0 , 17.0 , 16.0 , 15.0 ,
(PID.TID 0000.0001) >      14.0 , 13.0 , 12.0 , 11.0 , 10.0 ,
(PID.TID 0000.0001) >       9.0 ,  8.0 ,  7.0 ,  6.0,   5.0 ,
(PID.TID 0000.0001) >       4.0 ,  3.0 ,  2.0 ,
(PID.TID 0000.0001) >sRef= 34.65, 34.75, 34.82, 34.87, 34.90,
(PID.TID 0000.0001) >      34.90, 34.86, 34.78, 34.69, 34.60,
(PID.TID 0000.0001) >      34.58, 34.62, 34.68, 34.72, 34.73,
(PID.TID 0000.0001) >      34.74, 34.73, 34.73, 34.72, 34.72,
(PID.TID 0000.0001) >      34.71, 34.70, 34.69,
(PID.TID 0000.0001) >no_slip_sides=.false.,
(PID.TID 0000.0001) >no_slip_bottom=.TRUE.,
(PID.TID 0000.0001) >viscAz=1.E-3,
(PID.TID 0000.0001) >viscAh=1.E4,
(PID.TID 0000.0001) >diffKhT=1.E2,
(PID.TID 0000.0001) >diffKzT=1.E-5,
(PID.TID 0000.0001) >diffKhS=1.E2,
(PID.TID 0000.0001) >diffKzS=1.E-5,
(PID.TID 0000.0001) >beta=1.E-11,
(PID.TID 0000.0001) >tAlpha=2.E-4,
(PID.TID 0000.0001) >sBeta =7.4E-4,
(PID.TID 0000.0001) >gravity=9.81,
(PID.TID 0000.0001) >gBaro=9.81,
(PID.TID 0000.0001) >rigidLid=.FALSE.,
(PID.TID 0000.0001) >implicitFreeSurface=.true.,
(PID.TID 0000.0001) >eosType='POLY3',
(PID.TID 0000.0001) >saltStepping=.TRUE.,
(PID.TID 0000.0001) >tempStepping=.TRUE.,
(PID.TID 0000.0001) >momStepping=.TRUE.,
(PID.TID 0000.0001) >implicitDiffusion=.true.,
(PID.TID 0000.0001) >implicitViscosity=.true.,
(PID.TID 0000.0001) >allowFreezing=.false.,
(PID.TID 0000.0001) >useSingleCpuIO=.TRUE.,
(PID.TID 0000.0001) >useCDscheme=.FALSE.,
(PID.TID 0000.0001) >tempAdvScheme = 3,
(PID.TID 0000.0001) >saltAdvScheme = 3,
(PID.TID 0000.0001) >readBinaryPrec= 64,
(PID.TID 0000.0001) >writeBinaryPrec= 64,
(PID.TID 0000.0001) >/
(PID.TID 0000.0001) >
(PID.TID 0000.0001) ># **************************
(PID.TID 0000.0001) ># Elliptic solver parameters
(PID.TID 0000.0001) ># **************************
(PID.TID 0000.0001) >&PARM02
(PID.TID 0000.0001) >cg2dMaxIters=300,
(PID.TID 0000.0001) >cg2dTargetResidual=1.E-7,
(PID.TID 0000.0001) >/
(PID.TID 0000.0001) >
(PID.TID 0000.0001) ># ************************
(PID.TID 0000.0001) ># Time stepping parameters
(PID.TID 0000.0001) ># ************************
(PID.TID 0000.0001) >&PARM03
(PID.TID 0000.0001) > nIter0=0,
(PID.TID 0000.0001) > nTimeSteps=4,
(PID.TID 0000.0001) > deltaTmom=10800.,
(PID.TID 0000.0001) > deltaTtracer=10800.,
(PID.TID 0000.0001) > deltaTClock =10800.,
(PID.TID 0000.0001) > abEps=0.1,
(PID.TID 0000.0001) > pChkptFreq  = 31104000.,
(PID.TID 0000.0001) > chkptFreq   = 31104000.,
(PID.TID 0000.0001) >#pChkptFreq  = 2592000.,
(PID.TID 0000.0001) >#chkptFreq   = 2592000.,
(PID.TID 0000.0001) > dumpFreq    = 31104000.,
(PID.TID 0000.0001) > taveFreq    = 31104000.,
(PID.TID 0000.0001) >#taveFreq    = 86400.,
(PID.TID 0000.0001) >#dumpFreq    = 2592000.,
(PID.TID 0000.0001) >#taveFreq    = 2592000.,
(PID.TID 0000.0001) > monitorFreq = 2592000.,
(PID.TID 0000.0001) > monitorFreq = 1.,
(PID.TID 0000.0001) >#monitorFreq = 31104000.,
(PID.TID 0000.0001) > tauThetaClimRelax=0.,
(PID.TID 0000.0001) > tauSaltClimRelax=0.,
(PID.TID 0000.0001) > periodicExternalForcing=.TRUE.,
(PID.TID 0000.0001) > externForcingPeriod=2592000.,
(PID.TID 0000.0001) > externForcingCycle=31104000.,
(PID.TID 0000.0001) >/
(PID.TID 0000.0001) >
(PID.TID 0000.0001) ># *******************
(PID.TID 0000.0001) ># Gridding parameters
(PID.TID 0000.0001) ># *******************
(PID.TID 0000.0001) >&PARM04
(PID.TID 0000.0001) >usingCartesianGrid=.FALSE.,
(PID.TID 0000.0001) >usingSphericalPolarGrid=.TRUE.,
(PID.TID 0000.0001) >delX=360*1.E0,
(PID.TID 0000.0001) >delY=160*1.E0,
(PID.TID 0000.0001) >delZ=10.,10.,15.,20.,20.,25.,35.,50.,75.,
(PID.TID 0000.0001) >100.,150.,200.,275.,350.,415.,450.,500.,
(PID.TID 0000.0001) >500.,500.,500.,500.,500.,500.,
(PID.TID 0000.0001) >xgOrigin=0,
(PID.TID 0000.0001) >ygOrigin=-80.,
(PID.TID 0000.0001) >/
(PID.TID 0000.0001) >
(PID.TID 0000.0001) ># **********
(PID.TID 0000.0001) ># Data Files
(PID.TID 0000.0001) ># **********
(PID.TID 0000.0001) >&PARM05
(PID.TID 0000.0001) >bathyFile=       '../../../input/eccov3_R8/bathy_fl.bin',
(PID.TID 0000.0001) >#hydrogThetaFile= 'input/LEVITUS_1x1_ptmp_NEW_corK',
(PID.TID 0000.0001) >#hydrogSaltFile=  'input/LEVITUS_1x1_salt_NEW_corK',
(PID.TID 0000.0001) >zonalWindFile=   '',
(PID.TID 0000.0001) >meridWindFile=   '',
(PID.TID 0000.0001) >thetaClimFile=   '',
(PID.TID 0000.0001) >saltClimFile=    '',
(PID.TID 0000.0001) >surfQFile=       '',
(PID.TID 0000.0001) >EmPmRFile=       '',
(PID.TID 0000.0001) >/
(PID.TID 0000.0001) 
(PID.TID 0000.0001)  INI_PARMS ; starts to read PARM01
(PID.TID 0000.0001)  INI_PARMS ; read PARM01 : OK
(PID.TID 0000.0001)  INI_PARMS ; starts to read PARM02
(PID.TID 0000.0001)  INI_PARMS ; read PARM02 : OK
(PID.TID 0000.0001)  INI_PARMS ; starts to read PARM03
(PID.TID 0000.0001)  INI_PARMS ; read PARM03 : OK
(PID.TID 0000.0001)  INI_PARMS ; starts to read PARM04
(PID.TID 0000.0001)  INI_PARMS ; read PARM04 : OK
(PID.TID 0000.0001)  INI_PARMS ; starts to read PARM05
(PID.TID 0000.0001)  INI_PARMS ; read PARM05 : OK
(PID.TID 0000.0001)  INI_PARMS: finished reading file "data"
(PID.TID 0000.0001)  PACKAGES_BOOT: opening data.pkg
(PID.TID 0000.0001)  OPEN_COPY_DATA_FILE: opening file data.pkg
(PID.TID 0000.0001) // =======================================================
(PID.TID 0000.0001) // Removing comments from "data.pkg"
(PID.TID 0000.0001) // =======================================================
(PID.TID 0000.0001)    1  &PACKAGES
(PID.TID 0000.0001)    2  useGMRedi=.TRUE.
(PID.TID 0000.0001)    3  usePTRACERS=.TRUE.
(PID.TID 0000.0001)    4  useGCHEM=.TRUE.,
(PID.TID 0000.0001)    5  useKPP=.TRUE.,
(PID.TID 0000.0001)    6  useMNC=.TRUE.,
(PID.TID 0000.0001)    7  useEXF=.TRUE.,
(PID.TID 0000.0001)    8  useOFFLINE=.TRUE.,
(PID.TID 0000.0001)    9  useDIAGNOSTICS=.TRUE.,
(PID.TID 0000.0001)   10  /
(PID.TID 0000.0001) // =======================================================
(PID.TID 0000.0001) // Parameter file "data.pkg"
(PID.TID 0000.0001) // =======================================================
(PID.TID 0000.0001) ># Packages
(PID.TID 0000.0001) > &PACKAGES
(PID.TID 0000.0001) > useGMRedi=.TRUE.
(PID.TID 0000.0001) > usePTRACERS=.TRUE.
(PID.TID 0000.0001) > useGCHEM=.TRUE.,
(PID.TID 0000.0001) > useKPP=.TRUE.,
(PID.TID 0000.0001) > useMNC=.TRUE.,
(PID.TID 0000.0001) > useEXF=.TRUE.,
(PID.TID 0000.0001) > useOFFLINE=.TRUE.,
(PID.TID 0000.0001) > useDIAGNOSTICS=.TRUE.,
(PID.TID 0000.0001) > /
(PID.TID 0000.0001) 
(PID.TID 0000.0001)  PACKAGES_BOOT: finished reading data.pkg
(PID.TID 0000.0001)  PACKAGES_BOOT: On/Off package Summary
 --------  pkgs with a standard "usePKG" On/Off switch in "data.pkg":  --------
 pkg/kpp                  compiled   and   used ( useKPP                   = T )
 pkg/gmredi               compiled   and   used ( useGMRedi                = T )
 pkg/cal                  compiled   and   used ( useCAL                   = T )
 pkg/exf                  compiled   and   used ( useEXF                   = T )
 pkg/sbo                  compiled but not used ( useSBO                   = F )
 pkg/ptracers             compiled   and   used ( usePTRACERS              = T )
 pkg/gchem                compiled   and   used ( useGCHEM                 = T )
 pkg/offline              compiled   and   used ( useOffLine               = T )
 pkg/diagnostics          compiled   and   used ( useDiagnostics           = T )
 pkg/mnc                  compiled   and   used ( useMNC                   = T )
 -------- pkgs without standard "usePKG" On/Off switch in "data.pkg":  --------
 pkg/generic_advdiff      compiled   and   used ( useGAD                   = T )
 pkg/mom_common           compiled   and   used ( momStepping              = T )
 pkg/mom_vecinv           compiled but not used ( +vectorInvariantMomentum = F )
 pkg/mom_fluxform         compiled   and   used ( & not vectorInvariantMom = T )
 pkg/monitor              compiled   and   used ( monitorFreq > 0.         = T )
 pkg/timeave              compiled   and   used ( taveFreq > 0.            = T )
 pkg/rw                   compiled   and   used
 pkg/mdsio                compiled   and   used
(PID.TID 0000.0001)  PACKAGES_BOOT: End of package Summary
(PID.TID 0000.0001) 
(PID.TID 0000.0001)  MNC_READPARMS: opening file 'data.mnc'
(PID.TID 0000.0001)  OPEN_COPY_DATA_FILE: opening file data.mnc
(PID.TID 0000.0001) // =======================================================
(PID.TID 0000.0001) // Removing comments from "data.mnc"
(PID.TID 0000.0001) // =======================================================
(PID.TID 0000.0001)    1  &MNC_01
(PID.TID 0000.0001)    2  mnc_use_outdir=.TRUE.,
(PID.TID 0000.0001)    3  mnc_outdir_str='ecco_gud_',
(PID.TID 0000.0001)    4  mnc_outdir_date=.TRUE.,
(PID.TID 0000.0001)    5  monitor_mnc=.FALSE.,
(PID.TID 0000.0001)    6  snapshot_mnc=.TRUE.,
(PID.TID 0000.0001)    7  timeave_mnc=.TRUE.,
(PID.TID 0000.0001)    8  pickup_read_mnc=.FALSE.,
(PID.TID 0000.0001)    9  pickup_write_mnc=.FALSE.,
(PID.TID 0000.0001)   10  mnc_filefreq = 311040000.,
(PID.TID 0000.0001)   11  mnc_max_fsize = 2e12,
(PID.TID 0000.0001)   12  /
(PID.TID 0000.0001) // =======================================================
(PID.TID 0000.0001) // Parameter file "data.mnc"
(PID.TID 0000.0001) // =======================================================
(PID.TID 0000.0001) ># Example "data.mnc" file
(PID.TID 0000.0001) ># Lines beginning "#" are comments
(PID.TID 0000.0001) > &MNC_01
(PID.TID 0000.0001) ># mnc_echo_gvtypes=.FALSE.,
(PID.TID 0000.0001) ># mnc_use_indir=.FALSE.,
(PID.TID 0000.0001) > mnc_use_outdir=.TRUE.,
(PID.TID 0000.0001) > mnc_outdir_str='ecco_gud_',
(PID.TID 0000.0001) > mnc_outdir_date=.TRUE.,
(PID.TID 0000.0001) > monitor_mnc=.FALSE.,
(PID.TID 0000.0001) > snapshot_mnc=.TRUE.,
(PID.TID 0000.0001) > timeave_mnc=.TRUE.,
(PID.TID 0000.0001) > pickup_read_mnc=.FALSE.,
(PID.TID 0000.0001) > pickup_write_mnc=.FALSE.,
(PID.TID 0000.0001) > mnc_filefreq = 311040000.,
(PID.TID 0000.0001) > mnc_max_fsize = 2e12,
(PID.TID 0000.0001) > /
(PID.TID 0000.0001) ># Note: Some systems use & as the
(PID.TID 0000.0001) ># namelist terminator. Other systems
(PID.TID 0000.0001) ># use a / character.
(PID.TID 0000.0001) 
(PID.TID 0000.0001)  MNC_READPARMS: finished reading data.mnc
(PID.TID 0000.0001) CAL_READPARMS: opening data.cal
(PID.TID 0000.0001)  OPEN_COPY_DATA_FILE: opening file data.cal
(PID.TID 0000.0001) // =======================================================
(PID.TID 0000.0001) // Removing comments from "data.cal"
(PID.TID 0000.0001) // =======================================================
(PID.TID 0000.0001)    1  &CAL_NML
(PID.TID 0000.0001)    2  TheCalendar='model',
(PID.TID 0000.0001)    3  startDate_1=20000101,
(PID.TID 0000.0001)    4  startDate_2=000000,
(PID.TID 0000.0001)    5  calendarDumps = .TRUE.
(PID.TID 0000.0001)    6  /
(PID.TID 0000.0001) // =======================================================
(PID.TID 0000.0001) // Parameter file "data.cal"
(PID.TID 0000.0001) // =======================================================
(PID.TID 0000.0001) ># *******************
(PID.TID 0000.0001) ># Calendar Parameters
(PID.TID 0000.0001) ># *******************
(PID.TID 0000.0001) > &CAL_NML
(PID.TID 0000.0001) > TheCalendar='model',
(PID.TID 0000.0001) > startDate_1=20000101,
(PID.TID 0000.0001) > startDate_2=000000,
(PID.TID 0000.0001) > calendarDumps = .TRUE.
(PID.TID 0000.0001) > /
(PID.TID 0000.0001) 
(PID.TID 0000.0001) CAL_READPARMS: finished reading data.cal
(PID.TID 0000.0001) EXF_READPARMS: opening data.exf
(PID.TID 0000.0001)  OPEN_COPY_DATA_FILE: opening file data.exf
(PID.TID 0000.0001) // =======================================================
(PID.TID 0000.0001) // Removing comments from "data.exf"
(PID.TID 0000.0001) // =======================================================
(PID.TID 0000.0001)    1  &EXF_NML_01
(PID.TID 0000.0001)    2  exf_iprec         = 32,
(PID.TID 0000.0001)    3  exf_yftype        = 'RL',
(PID.TID 0000.0001)    4  useExfCheckRange  = .FALSE.,
(PID.TID 0000.0001)    5  repeatPeriod = 31104000.,
(PID.TID 0000.0001)    6  /
(PID.TID 0000.0001)    7  &EXF_NML_02
(PID.TID 0000.0001)    8  /
(PID.TID 0000.0001)    9  &EXF_NML_03
(PID.TID 0000.0001)   10  /
(PID.TID 0000.0001)   11  &EXF_NML_04
(PID.TID 0000.0001)   12  /
(PID.TID 0000.0001) // =======================================================
(PID.TID 0000.0001) // Parameter file "data.exf"
(PID.TID 0000.0001) // =======================================================
(PID.TID 0000.0001) ># *********************
(PID.TID 0000.0001) ># External Forcing Data
(PID.TID 0000.0001) ># *********************
(PID.TID 0000.0001) >#
(PID.TID 0000.0001) > &EXF_NML_01
(PID.TID 0000.0001) > exf_iprec         = 32,
(PID.TID 0000.0001) > exf_yftype        = 'RL',
(PID.TID 0000.0001) ># useExfYearlyFields= .TRUE.,
(PID.TID 0000.0001) ># twoDigitYear      = .TRUE.,
(PID.TID 0000.0001) > useExfCheckRange  = .FALSE.,
(PID.TID 0000.0001) > repeatPeriod = 31104000.,
(PID.TID 0000.0001) > /
(PID.TID 0000.0001) >#
(PID.TID 0000.0001) > &EXF_NML_02
(PID.TID 0000.0001) > /
(PID.TID 0000.0001) >#
(PID.TID 0000.0001) > &EXF_NML_03
(PID.TID 0000.0001) > /
(PID.TID 0000.0001) >#
(PID.TID 0000.0001) > &EXF_NML_04
(PID.TID 0000.0001) > /
(PID.TID 0000.0001) 
(PID.TID 0000.0001) EXF_READPARMS: reading EXF_NML_01
(PID.TID 0000.0001) EXF_READPARMS: reading EXF_NML_02
(PID.TID 0000.0001) EXF_READPARMS: reading EXF_NML_03
(PID.TID 0000.0001) EXF_READPARMS: finished reading data.exf
(PID.TID 0000.0001)  KPP_INIT: opening data.kpp
(PID.TID 0000.0001)  OPEN_COPY_DATA_FILE: opening file data.kpp
(PID.TID 0000.0001) // =======================================================
(PID.TID 0000.0001) // Removing comments from "data.kpp"
(PID.TID 0000.0001) // =======================================================
(PID.TID 0000.0001)    1  &KPP_PARM01
(PID.TID 0000.0001)    2  /
(PID.TID 0000.0001) // =======================================================
(PID.TID 0000.0001) // Parameter file "data.kpp"
(PID.TID 0000.0001) // =======================================================
(PID.TID 0000.0001) >#
(PID.TID 0000.0001) ># ***************
(PID.TID 0000.0001) ># Open boundaries
(PID.TID 0000.0001) ># ***************
(PID.TID 0000.0001) > &KPP_PARM01
(PID.TID 0000.0001) ># KPPwriteState   = .TRUE.,
(PID.TID 0000.0001) > /
(PID.TID 0000.0001) 
(PID.TID 0000.0001)  KPP_INIT: finished reading data.kpp
(PID.TID 0000.0001)  GM_READPARMS: opening data.gmredi
(PID.TID 0000.0001)  OPEN_COPY_DATA_FILE: opening file data.gmredi
(PID.TID 0000.0001) // =======================================================
(PID.TID 0000.0001) // Removing comments from "data.gmredi"
(PID.TID 0000.0001) // =======================================================
(PID.TID 0000.0001)    1
(PID.TID 0000.0001)    2
(PID.TID 0000.0001)    3 (default=GM_background_K)
(PID.TID 0000.0001)    4 form)
(PID.TID 0000.0001)    5
(PID.TID 0000.0001)    6  &GM_PARM01
(PID.TID 0000.0001)    7   GM_Small_Number    = 1.D-20,
(PID.TID 0000.0001)    8   GM_slopeSqCutoff   = 1.D+08,
(PID.TID 0000.0001)    9   GM_AdvForm         = .FALSE.,
(PID.TID 0000.0001)   10   GM_isopycK         = 1.D+3,
(PID.TID 0000.0001)   11   GM_background_K    = 1.D+3,
(PID.TID 0000.0001)   12   GM_maxSlope        = 1.D-2,
(PID.TID 0000.0001)   13   GM_taper_scheme    = 'dm95',
(PID.TID 0000.0001)   14   GM_Kmin_horiz      = 50.,
(PID.TID 0000.0001)   15   GM_Scrit           = 4.D-3,
(PID.TID 0000.0001)   16   GM_Sd              = 1.D-3,
(PID.TID 0000.0001)   17  /
(PID.TID 0000.0001)   18
(PID.TID 0000.0001) // =======================================================
(PID.TID 0000.0001) // Parameter file "data.gmredi"
(PID.TID 0000.0001) // =======================================================
(PID.TID 0000.0001) ># GM+Redi package parameters:
(PID.TID 0000.0001) >#     GM_Small_Number  :: epsilon used in computing the slope
(PID.TID 0000.0001) >#     GM_slopeSqCutoff :: slope^2 cut-off value
(PID.TID 0000.0001) >
(PID.TID 0000.0001) >#-from MOM :
(PID.TID 0000.0001) ># GM_background_K:      G & Mc.W  diffusion coefficient
(PID.TID 0000.0001) ># GM_maxSlope    :      max slope of isopycnals
(PID.TID 0000.0001) ># GM_Scrit       :      transition for scaling diffusion coefficient
(PID.TID 0000.0001) ># GM_Sd          :      half width scaling for diffusion coefficient
(PID.TID 0000.0001) ># GM_taper_scheme:      slope clipping or one of the tapering schemes
(PID.TID 0000.0001) ># GM_Kmin_horiz  :      horizontal diffusion minimum value
(PID.TID 0000.0001) >
(PID.TID 0000.0001) >#-Option parameters (needs to "define" options in GMREDI_OPTIONS.h")
(PID.TID 0000.0001) ># GM_isopycK     :      isopycnal diffusion coefficient
(PID.TID 0000.0001) >(default=GM_background_K)
(PID.TID 0000.0001) ># GM_AdvForm     :      turn on GM Advective form       (default=Skew flux
(PID.TID 0000.0001) >form)
(PID.TID 0000.0001) >
(PID.TID 0000.0001) > &GM_PARM01
(PID.TID 0000.0001) >  GM_Small_Number    = 1.D-20,
(PID.TID 0000.0001) >  GM_slopeSqCutoff   = 1.D+08,
(PID.TID 0000.0001) >  GM_AdvForm         = .FALSE.,
(PID.TID 0000.0001) >  GM_isopycK         = 1.D+3,
(PID.TID 0000.0001) >  GM_background_K    = 1.D+3,
(PID.TID 0000.0001) >  GM_maxSlope        = 1.D-2,
(PID.TID 0000.0001) >  GM_taper_scheme    = 'dm95',
(PID.TID 0000.0001) >  GM_Kmin_horiz      = 50.,
(PID.TID 0000.0001) >  GM_Scrit           = 4.D-3,
(PID.TID 0000.0001) >  GM_Sd              = 1.D-3,
(PID.TID 0000.0001) >#
(PID.TID 0000.0001) >###  GM_Visbeck_alpha   = 1.5D-2,
(PID.TID 0000.0001) >###  GM_Visbeck_alpha   = 0.D0,
(PID.TID 0000.0001) >###  GM_Visbeck_length  = 2.D+5,
(PID.TID 0000.0001) >###  GM_Visbeck_depth   = 1.D+3,
(PID.TID 0000.0001) >###  GM_Visbeck_maxval_K= 2.5D+3,
(PID.TID 0000.0001) > /
(PID.TID 0000.0001) >
(PID.TID 0000.0001) 
(PID.TID 0000.0001)  GM_READPARMS: finished reading data.gmredi
(PID.TID 0000.0001)  PTRACERS_READPARMS: opening data.ptracers
(PID.TID 0000.0001)  OPEN_COPY_DATA_FILE: opening file data.ptracers
(PID.TID 0000.0001) // =======================================================
(PID.TID 0000.0001) // Removing comments from "data.ptracers"
(PID.TID 0000.0001) // =======================================================
(PID.TID 0000.0001)    1  &PTRACERS_PARM01
(PID.TID 0000.0001)    2  PTRACERS_numInUse=233,
(PID.TID 0000.0001)    3  PTRACERS_Iter0= 0,
(PID.TID 0000.0001)    4  PTRACERS_advScheme=233*33,
(PID.TID 0000.0001)    5  PTRACERS_diffKh=233*0.E3,
(PID.TID 0000.0001)    6  PTRACERS_diffKr=233*1.E-5,
(PID.TID 0000.0001)    7  PTRACERS_useGMRedi=233*.TRUE.,
(PID.TID 0000.0001)    8  PTRACERS_useKPP=233*.TRUE.,
(PID.TID 0000.0001)    9  PTRACERS_names(1)= 'DIC',
(PID.TID 0000.0001)   10  PTRACERS_names(2)= 'NH4',
(PID.TID 0000.0001)   11  PTRACERS_names(3)= 'NO2',
(PID.TID 0000.0001)   12  PTRACERS_names(4)= 'NO3',
(PID.TID 0000.0001)   13  PTRACERS_names(5)= 'PO4',
(PID.TID 0000.0001)   14  PTRACERS_names(6)= 'SiO2',
(PID.TID 0000.0001)   15  PTRACERS_names(7)= 'FeT',
(PID.TID 0000.0001)   16  PTRACERS_names(8)= 'DOC',
(PID.TID 0000.0001)   17  PTRACERS_names(9)= 'DON',
(PID.TID 0000.0001)   18  PTRACERS_names(10)= 'DOP',
(PID.TID 0000.0001)   19  PTRACERS_names(11)= 'DOFe',
(PID.TID 0000.0001)   20  PTRACERS_names(12)= 'POC',
(PID.TID 0000.0001)   21  PTRACERS_names(13)= 'PON',
(PID.TID 0000.0001)   22  PTRACERS_names(14)= 'POP',
(PID.TID 0000.0001)   23  PTRACERS_names(15)= 'POSi',
(PID.TID 0000.0001)   24  PTRACERS_names(16)= 'POFe',
(PID.TID 0000.0001)   25  PTRACERS_names(17)= 'PIC',
(PID.TID 0000.0001)   26  PTRACERS_names(18)= 'ALK',
(PID.TID 0000.0001)   27  PTRACERS_names(19)= 'O2',
(PID.TID 0000.0001)   28  PTRACERS_names(20)= 'c01',
(PID.TID 0000.0001)   29  PTRACERS_names(21)= 'c02',
(PID.TID 0000.0001)   30  PTRACERS_names(22)= 'c03',
(PID.TID 0000.0001)   31  PTRACERS_names(23)= 'c04',
(PID.TID 0000.0001)   32  PTRACERS_names(24)= 'c05',
(PID.TID 0000.0001)   33  PTRACERS_names(25)= 'c06',
(PID.TID 0000.0001)   34  PTRACERS_names(26)= 'c07',
(PID.TID 0000.0001)   35  PTRACERS_names(27)= 'c08',
(PID.TID 0000.0001)   36  PTRACERS_names(28)= 'c09',
(PID.TID 0000.0001)   37  PTRACERS_names(29)= 'c10',
(PID.TID 0000.0001)   38  PTRACERS_names(30)= 'c11',
(PID.TID 0000.0001)   39  PTRACERS_names(31)= 'c12',
(PID.TID 0000.0001)   40  PTRACERS_names(32)= 'c13',
(PID.TID 0000.0001)   41  PTRACERS_names(33)= 'c14',
(PID.TID 0000.0001)   42  PTRACERS_names(34)= 'c15',
(PID.TID 0000.0001)   43  PTRACERS_names(35)= 'c16',
(PID.TID 0000.0001)   44  PTRACERS_names(36)= 'c17',
(PID.TID 0000.0001)   45  PTRACERS_names(37)= 'c18',
(PID.TID 0000.0001)   46  PTRACERS_names(38)= 'c19',
(PID.TID 0000.0001)   47  PTRACERS_names(39)= 'c20',
(PID.TID 0000.0001)   48  PTRACERS_names(40)= 'c21',
(PID.TID 0000.0001)   49  PTRACERS_names(41)= 'c22',
(PID.TID 0000.0001)   50  PTRACERS_names(42)= 'c23',
(PID.TID 0000.0001)   51  PTRACERS_names(43)= 'c24',
(PID.TID 0000.0001)   52  PTRACERS_names(44)= 'c25',
(PID.TID 0000.0001)   53  PTRACERS_names(45)= 'c26',
(PID.TID 0000.0001)   54  PTRACERS_names(46)= 'c27',
(PID.TID 0000.0001)   55  PTRACERS_names(47)= 'c28',
(PID.TID 0000.0001)   56  PTRACERS_names(48)= 'c29',
(PID.TID 0000.0001)   57  PTRACERS_names(49)= 'c30',
(PID.TID 0000.0001)   58  PTRACERS_names(50)= 'c31',
(PID.TID 0000.0001)   59  PTRACERS_names(51)= 'c32',
(PID.TID 0000.0001)   60  PTRACERS_names(52)= 'c33',
(PID.TID 0000.0001)   61  PTRACERS_names(53)= 'c34',
(PID.TID 0000.0001)   62  PTRACERS_names(54)= 'c35',
(PID.TID 0000.0001)   63  PTRACERS_names(55)= 'c36',
(PID.TID 0000.0001)   64  PTRACERS_names(56)= 'c37',
(PID.TID 0000.0001)   65  PTRACERS_names(57)= 'c38',
(PID.TID 0000.0001)   66  PTRACERS_names(58)= 'n01',
(PID.TID 0000.0001)   67  PTRACERS_names(59)= 'n02',
(PID.TID 0000.0001)   68  PTRACERS_names(60)= 'n03',
(PID.TID 0000.0001)   69  PTRACERS_names(61)= 'n04',
(PID.TID 0000.0001)   70  PTRACERS_names(62)= 'n05',
(PID.TID 0000.0001)   71  PTRACERS_names(63)= 'n06',
(PID.TID 0000.0001)   72  PTRACERS_names(64)= 'n07',
(PID.TID 0000.0001)   73  PTRACERS_names(65)= 'n08',
(PID.TID 0000.0001)   74  PTRACERS_names(66)= 'n09',
(PID.TID 0000.0001)   75  PTRACERS_names(67)= 'n10',
(PID.TID 0000.0001)   76  PTRACERS_names(68)= 'n11',
(PID.TID 0000.0001)   77  PTRACERS_names(69)= 'n12',
(PID.TID 0000.0001)   78  PTRACERS_names(70)= 'n13',
(PID.TID 0000.0001)   79  PTRACERS_names(71)= 'n14',
(PID.TID 0000.0001)   80  PTRACERS_names(72)= 'n15',
(PID.TID 0000.0001)   81  PTRACERS_names(73)= 'n16',
(PID.TID 0000.0001)   82  PTRACERS_names(74)= 'n17',
(PID.TID 0000.0001)   83  PTRACERS_names(75)= 'n18',
(PID.TID 0000.0001)   84  PTRACERS_names(76)= 'n19',
(PID.TID 0000.0001)   85  PTRACERS_names(77)= 'n20',
(PID.TID 0000.0001)   86  PTRACERS_names(78)= 'n21',
(PID.TID 0000.0001)   87  PTRACERS_names(79)= 'n22',
(PID.TID 0000.0001)   88  PTRACERS_names(80)= 'n23',
(PID.TID 0000.0001)   89  PTRACERS_names(81)= 'n24',
(PID.TID 0000.0001)   90  PTRACERS_names(82)= 'n25',
(PID.TID 0000.0001)   91  PTRACERS_names(83)= 'n26',
(PID.TID 0000.0001)   92  PTRACERS_names(84)= 'n27',
(PID.TID 0000.0001)   93  PTRACERS_names(85)= 'n28',
(PID.TID 0000.0001)   94  PTRACERS_names(86)= 'n29',
(PID.TID 0000.0001)   95  PTRACERS_names(87)= 'n30',
(PID.TID 0000.0001)   96  PTRACERS_names(88)= 'n31',
(PID.TID 0000.0001)   97  PTRACERS_names(89)= 'n32',
(PID.TID 0000.0001)   98  PTRACERS_names(90)= 'n33',
(PID.TID 0000.0001)   99  PTRACERS_names(91)= 'n34',
(PID.TID 0000.0001)  100  PTRACERS_names(92)= 'n35',
(PID.TID 0000.0001)  101  PTRACERS_names(93)= 'n36',
(PID.TID 0000.0001)  102  PTRACERS_names(94)= 'n37',
(PID.TID 0000.0001)  103  PTRACERS_names(95)= 'n38',
(PID.TID 0000.0001)  104  PTRACERS_names(96)= 'p01',
(PID.TID 0000.0001)  105  PTRACERS_names(97)= 'p02',
(PID.TID 0000.0001)  106  PTRACERS_names(98)= 'p03',
(PID.TID 0000.0001)  107  PTRACERS_names(99)= 'p04',
(PID.TID 0000.0001)  108  PTRACERS_names(100)= 'p05',
(PID.TID 0000.0001)  109  PTRACERS_names(101)= 'p06',
(PID.TID 0000.0001)  110  PTRACERS_names(102)= 'p07',
(PID.TID 0000.0001)  111  PTRACERS_names(103)= 'p08',
(PID.TID 0000.0001)  112  PTRACERS_names(104)= 'p09',
(PID.TID 0000.0001)  113  PTRACERS_names(105)= 'p10',
(PID.TID 0000.0001)  114  PTRACERS_names(106)= 'p11',
(PID.TID 0000.0001)  115  PTRACERS_names(107)= 'p12',
(PID.TID 0000.0001)  116  PTRACERS_names(108)= 'p13',
(PID.TID 0000.0001)  117  PTRACERS_names(109)= 'p14',
(PID.TID 0000.0001)  118  PTRACERS_names(110)= 'p15',
(PID.TID 0000.0001)  119  PTRACERS_names(111)= 'p16',
(PID.TID 0000.0001)  120  PTRACERS_names(112)= 'p17',
(PID.TID 0000.0001)  121  PTRACERS_names(113)= 'p18',
(PID.TID 0000.0001)  122  PTRACERS_names(114)= 'p19',
(PID.TID 0000.0001)  123  PTRACERS_names(115)= 'p20',
(PID.TID 0000.0001)  124  PTRACERS_names(116)= 'p21',
(PID.TID 0000.0001)  125  PTRACERS_names(117)= 'p22',
(PID.TID 0000.0001)  126  PTRACERS_names(118)= 'p23',
(PID.TID 0000.0001)  127  PTRACERS_names(119)= 'p24',
(PID.TID 0000.0001)  128  PTRACERS_names(120)= 'p25',
(PID.TID 0000.0001)  129  PTRACERS_names(121)= 'p26',
(PID.TID 0000.0001)  130  PTRACERS_names(122)= 'p27',
(PID.TID 0000.0001)  131  PTRACERS_names(123)= 'p28',
(PID.TID 0000.0001)  132  PTRACERS_names(124)= 'p29',
(PID.TID 0000.0001)  133  PTRACERS_names(125)= 'p30',
(PID.TID 0000.0001)  134  PTRACERS_names(126)= 'p31',
(PID.TID 0000.0001)  135  PTRACERS_names(127)= 'p32',
(PID.TID 0000.0001)  136  PTRACERS_names(128)= 'p33',
(PID.TID 0000.0001)  137  PTRACERS_names(129)= 'p34',
(PID.TID 0000.0001)  138  PTRACERS_names(130)= 'p35',
(PID.TID 0000.0001)  139  PTRACERS_names(131)= 'p36',
(PID.TID 0000.0001)  140  PTRACERS_names(132)= 'p37',
(PID.TID 0000.0001)  141  PTRACERS_names(133)= 'p38',
(PID.TID 0000.0001)  142  PTRACERS_names(134)= 'si01',
(PID.TID 0000.0001)  143  PTRACERS_names(135)= 'si02',
(PID.TID 0000.0001)  144  PTRACERS_names(136)= 'si03',
(PID.TID 0000.0001)  145  PTRACERS_names(137)= 'si04',
(PID.TID 0000.0001)  146  PTRACERS_names(138)= 'si05',
(PID.TID 0000.0001)  147  PTRACERS_names(139)= 'si06',
(PID.TID 0000.0001)  148  PTRACERS_names(140)= 'si07',
(PID.TID 0000.0001)  149  PTRACERS_names(141)= 'si08',
(PID.TID 0000.0001)  150  PTRACERS_names(142)= 'si09',
(PID.TID 0000.0001)  151  PTRACERS_names(143)= 'si10',
(PID.TID 0000.0001)  152  PTRACERS_names(144)= 'si11',
(PID.TID 0000.0001)  153  PTRACERS_names(145)= 'si12',
(PID.TID 0000.0001)  154  PTRACERS_names(146)= 'si13',
(PID.TID 0000.0001)  155  PTRACERS_names(147)= 'si14',
(PID.TID 0000.0001)  156  PTRACERS_names(148)= 'si15',
(PID.TID 0000.0001)  157  PTRACERS_names(149)= 'si16',
(PID.TID 0000.0001)  158  PTRACERS_names(150)= 'si17',
(PID.TID 0000.0001)  159  PTRACERS_names(151)= 'si18',
(PID.TID 0000.0001)  160  PTRACERS_names(152)= 'si19',
(PID.TID 0000.0001)  161  PTRACERS_names(153)= 'si20',
(PID.TID 0000.0001)  162  PTRACERS_names(154)= 'si21',
(PID.TID 0000.0001)  163  PTRACERS_names(155)= 'si22',
(PID.TID 0000.0001)  164  PTRACERS_names(156)= 'si23',
(PID.TID 0000.0001)  165  PTRACERS_names(157)= 'si24',
(PID.TID 0000.0001)  166  PTRACERS_names(158)= 'si25',
(PID.TID 0000.0001)  167  PTRACERS_names(159)= 'si26',
(PID.TID 0000.0001)  168  PTRACERS_names(160)= 'si27',
(PID.TID 0000.0001)  169  PTRACERS_names(161)= 'si28',
(PID.TID 0000.0001)  170  PTRACERS_names(162)= 'si29',
(PID.TID 0000.0001)  171  PTRACERS_names(163)= 'si30',
(PID.TID 0000.0001)  172  PTRACERS_names(164)= 'si31',
(PID.TID 0000.0001)  173  PTRACERS_names(165)= 'si32',
(PID.TID 0000.0001)  174  PTRACERS_names(166)= 'si33',
(PID.TID 0000.0001)  175  PTRACERS_names(167)= 'si34',
(PID.TID 0000.0001)  176  PTRACERS_names(168)= 'si35',
(PID.TID 0000.0001)  177  PTRACERS_names(169)= 'si36',
(PID.TID 0000.0001)  178  PTRACERS_names(170)= 'si37',
(PID.TID 0000.0001)  179  PTRACERS_names(171)= 'si38',
(PID.TID 0000.0001)  180  PTRACERS_names(172)= 'fe01',
(PID.TID 0000.0001)  181  PTRACERS_names(173)= 'fe02',
(PID.TID 0000.0001)  182  PTRACERS_names(174)= 'fe03',
(PID.TID 0000.0001)  183  PTRACERS_names(175)= 'fe04',
(PID.TID 0000.0001)  184  PTRACERS_names(176)= 'fe05',
(PID.TID 0000.0001)  185  PTRACERS_names(177)= 'fe06',
(PID.TID 0000.0001)  186  PTRACERS_names(178)= 'fe07',
(PID.TID 0000.0001)  187  PTRACERS_names(179)= 'fe08',
(PID.TID 0000.0001)  188  PTRACERS_names(180)= 'fe09',
(PID.TID 0000.0001)  189  PTRACERS_names(181)= 'fe10',
(PID.TID 0000.0001)  190  PTRACERS_names(182)= 'fe11',
(PID.TID 0000.0001)  191  PTRACERS_names(183)= 'fe12',
(PID.TID 0000.0001)  192  PTRACERS_names(184)= 'fe13',
(PID.TID 0000.0001)  193  PTRACERS_names(185)= 'fe14',
(PID.TID 0000.0001)  194  PTRACERS_names(186)= 'fe15',
(PID.TID 0000.0001)  195  PTRACERS_names(187)= 'fe16',
(PID.TID 0000.0001)  196  PTRACERS_names(188)= 'fe17',
(PID.TID 0000.0001)  197  PTRACERS_names(189)= 'fe18',
(PID.TID 0000.0001)  198  PTRACERS_names(190)= 'fe19',
(PID.TID 0000.0001)  199  PTRACERS_names(191)= 'fe20',
(PID.TID 0000.0001)  200  PTRACERS_names(192)= 'fe21',
(PID.TID 0000.0001)  201  PTRACERS_names(193)= 'fe22',
(PID.TID 0000.0001)  202  PTRACERS_names(194)= 'fe23',
(PID.TID 0000.0001)  203  PTRACERS_names(195)= 'fe24',
(PID.TID 0000.0001)  204  PTRACERS_names(196)= 'fe25',
(PID.TID 0000.0001)  205  PTRACERS_names(197)= 'fe26',
(PID.TID 0000.0001)  206  PTRACERS_names(198)= 'fe27',
(PID.TID 0000.0001)  207  PTRACERS_names(199)= 'fe28',
(PID.TID 0000.0001)  208  PTRACERS_names(200)= 'fe29',
(PID.TID 0000.0001)  209  PTRACERS_names(201)= 'fe30',
(PID.TID 0000.0001)  210  PTRACERS_names(202)= 'fe31',
(PID.TID 0000.0001)  211  PTRACERS_names(203)= 'fe32',
(PID.TID 0000.0001)  212  PTRACERS_names(204)= 'fe33',
(PID.TID 0000.0001)  213  PTRACERS_names(205)= 'fe34',
(PID.TID 0000.0001)  214  PTRACERS_names(206)= 'fe35',
(PID.TID 0000.0001)  215  PTRACERS_names(207)= 'fe36',
(PID.TID 0000.0001)  216  PTRACERS_names(208)= 'fe37',
(PID.TID 0000.0001)  217  PTRACERS_names(209)= 'fe38',
(PID.TID 0000.0001)  218  PTRACERS_names(210)= 'Chl01',
(PID.TID 0000.0001)  219  PTRACERS_names(211)= 'Chl02',
(PID.TID 0000.0001)  220  PTRACERS_names(212)= 'Chl03',
(PID.TID 0000.0001)  221  PTRACERS_names(213)= 'Chl04',
(PID.TID 0000.0001)  222  PTRACERS_names(214)= 'Chl05',
(PID.TID 0000.0001)  223  PTRACERS_names(215)= 'Chl06',
(PID.TID 0000.0001)  224  PTRACERS_names(216)= 'Chl07',
(PID.TID 0000.0001)  225  PTRACERS_names(217)= 'Chl08',
(PID.TID 0000.0001)  226  PTRACERS_names(218)= 'Chl09',
(PID.TID 0000.0001)  227  PTRACERS_names(219)= 'Chl10',
(PID.TID 0000.0001)  228  PTRACERS_names(220)= 'Chl11',
(PID.TID 0000.0001)  229  PTRACERS_names(221)= 'Chl12',
(PID.TID 0000.0001)  230  PTRACERS_names(222)= 'Chl13',
(PID.TID 0000.0001)  231  PTRACERS_names(223)= 'Chl14',
(PID.TID 0000.0001)  232  PTRACERS_names(224)= 'Chl15',
(PID.TID 0000.0001)  233  PTRACERS_names(225)= 'Chl16',
(PID.TID 0000.0001)  234  PTRACERS_names(226)= 'Chl17',
(PID.TID 0000.0001)  235  PTRACERS_names(227)= 'Chl18',
(PID.TID 0000.0001)  236  PTRACERS_names(228)= 'Chl19',
(PID.TID 0000.0001)  237  PTRACERS_names(229)= 'Chl20',
(PID.TID 0000.0001)  238  PTRACERS_names(230)= 'Chl21',
(PID.TID 0000.0001)  239  PTRACERS_names(231)= 'Chl22',
(PID.TID 0000.0001)  240  PTRACERS_names(232)= 'Chl23',
(PID.TID 0000.0001)  241  PTRACERS_names(233)= 'Chl24',
(PID.TID 0000.0001)  242  PTRACERS_units(1)='mmol C/m^3',
(PID.TID 0000.0001)  243  PTRACERS_units(2)='mmol N/m^3',
(PID.TID 0000.0001)  244  PTRACERS_units(3)='mmol N/m^3',
(PID.TID 0000.0001)  245  PTRACERS_units(4)='mmol N/m^3',
(PID.TID 0000.0001)  246  PTRACERS_units(5)='mmol P/m^3',
(PID.TID 0000.0001)  247  PTRACERS_units(6)='mmol Si/m^3',
(PID.TID 0000.0001)  248  PTRACERS_units(7)='mmol Fe/m^3',
(PID.TID 0000.0001)  249  PTRACERS_units(8)='mmol C/m^3',
(PID.TID 0000.0001)  250  PTRACERS_units(9)='mmol N/m^3',
(PID.TID 0000.0001)  251  PTRACERS_units(10)='mmol P/m^3',
(PID.TID 0000.0001)  252  PTRACERS_units(11)='mmol Fe/m^3',
(PID.TID 0000.0001)  253  PTRACERS_units(12)='mmol C/m^3',
(PID.TID 0000.0001)  254  PTRACERS_units(13)='mmol N/m^3',
(PID.TID 0000.0001)  255  PTRACERS_units(14)='mmol P/m^3',
(PID.TID 0000.0001)  256  PTRACERS_units(15)='mmol Si/m^3',
(PID.TID 0000.0001)  257  PTRACERS_units(16)='mmol Fe/m^3',
(PID.TID 0000.0001)  258  PTRACERS_units(17)='mmol C/m^3',
(PID.TID 0000.0001)  259  PTRACERS_units(18)='mmol eq/m^3',
(PID.TID 0000.0001)  260  PTRACERS_units(19)='mmol O/m^3',
(PID.TID 0000.0001)  261  PTRACERS_units(20:57)=38*'mmol C/m^3',
(PID.TID 0000.0001)  262  PTRACERS_units(58:95)=38*'mmol N/m^3',
(PID.TID 0000.0001)  263  PTRACERS_units(96:133)=38*'mmol P/m^3',
(PID.TID 0000.0001)  264  PTRACERS_units(134:171)=38*'mmol Si/m^3',
(PID.TID 0000.0001)  265  PTRACERS_units(172:209)=38*'mmol Fe/m^3',
(PID.TID 0000.0001)  266  PTRACERS_units(210:233)=24*'mg Chl a/m^3',
(PID.TID 0000.0001)  267  PTRACERS_initialFile(1)='../../../input/eccov3_R8/glodap_tco2_ann-3d.bin',
(PID.TID 0000.0001)  268  PTRACERS_initialFile(2)='../../../input/DARWIN_ECCO_run17_R8/nh4_y2000.data',
(PID.TID 0000.0001)  269  PTRACERS_initialFile(3)='../../../input/DARWIN_ECCO_run17_R8/no2_y2000.data',
(PID.TID 0000.0001)  270  PTRACERS_initialFile(4)='../../../input/eccov3_R8/lev01_nitrate_ann-3d.bin',
(PID.TID 0000.0001)  271  PTRACERS_initialFile(5)='../../../input/eccov3_R8/lev01_phosphate_ann-3d.bin',
(PID.TID 0000.0001)  272  PTRACERS_initialFile(6)='../../../input/eccov3_R8/lev01_silicate_ann-3d.bin',
(PID.TID 0000.0001)  273  PTRACERS_initialFile(7)='../../../input/DARWIN_ECCO_run17_R8/fet_y2000.data',
(PID.TID 0000.0001)  274  PTRACERS_initialFile(8)='../../../input/DARWIN_ECCO_run17_R8/doc_y2000.data',
(PID.TID 0000.0001)  275  PTRACERS_initialFile(9)='../../../input/DARWIN_ECCO_run17_R8/don_y2000.data',
(PID.TID 0000.0001)  276  PTRACERS_initialFile(10)='../../../input/DARWIN_ECCO_run17_R8/dop_y2000.data',
(PID.TID 0000.0001)  277  PTRACERS_initialFile(11)='../../../input/DARWIN_ECCO_run17_R8/dofe_y2000.data',
(PID.TID 0000.0001)  278  PTRACERS_initialFile(12)='../../../input/DARWIN_ECCO_run17_R8/poc_y2000.data',
(PID.TID 0000.0001)  279  PTRACERS_initialFile(13)='../../../input/DARWIN_ECCO_run17_R8/pon_y2000.data',
(PID.TID 0000.0001)  280  PTRACERS_initialFile(14)='../../../input/DARWIN_ECCO_run17_R8/pop_y2000.data',
(PID.TID 0000.0001)  281  PTRACERS_initialFile(15)='../../../input/DARWIN_ECCO_run17_R8/posi_y2000.data',
(PID.TID 0000.0001)  282  PTRACERS_initialFile(16)='../../../input/DARWIN_ECCO_run17_R8/pofe_y2000.data',
(PID.TID 0000.0001)  283  PTRACERS_initialFile(17)='../../../input/DARWIN_ECCO_run17_R8/pic_y2000.data',
(PID.TID 0000.0001)  284  PTRACERS_initialFile(18)='../../../input/eccov3_R8/glodap_alk_ann-3d.bin',
(PID.TID 0000.0001)  285  PTRACERS_initialFile(19)='../../../input/eccov3_R8/lev01_oxygen_micromolar_ann-3d.bin',
(PID.TID 0000.0001)  286  PTRACERS_initialFile(20:57)=38*'../../../input/eccov3_R8/phy78_x120_lev01.bin',
(PID.TID 0000.0001)  287  PTRACERS_initialFile(58:61)=4*'../../../input/eccov3_R8/phy78_x16_lev01.bin',
(PID.TID 0000.0001)  288  PTRACERS_initialFile(62)=     '../../../input/eccov3_R8/phy78_x40_lev01.bin',
(PID.TID 0000.0001)  289  PTRACERS_initialFile(63:64)=2*'../../../input/eccov3_R8/phy78_x16_lev01.bin',
(PID.TID 0000.0001)  290  PTRACERS_initialFile(65)=     '../../../input/eccov3_R8/phy78_x40_lev01.bin',
(PID.TID 0000.0001)  291  PTRACERS_initialFile(66:67)=2*'../../../input/eccov3_R8/phy78_x16_lev01.bin',
(PID.TID 0000.0001)  292  PTRACERS_initialFile(68)=     '../../../input/eccov3_R8/phy78_x40_lev01.bin',
(PID.TID 0000.0001)  293  PTRACERS_initialFile(69:70)=2*'../../../input/eccov3_R8/phy78_x16_lev01.bin',
(PID.TID 0000.0001)  294  PTRACERS_initialFile(71)=     '../../../input/eccov3_R8/phy78_x40_lev01.bin',
(PID.TID 0000.0001)  295  PTRACERS_initialFile(72:73)=2*'../../../input/eccov3_R8/phy78_x16_lev01.bin',
(PID.TID 0000.0001)  296  PTRACERS_initialFile(74)=     '../../../input/eccov3_R8/phy78_x40_lev01.bin',
(PID.TID 0000.0001)  297  PTRACERS_initialFile(75:81)=7*'../../../input/eccov3_R8/phy78_x16_lev01.bin',
(PID.TID 0000.0001)  298  PTRACERS_initialFile(82:95)=14*'../../../input/eccov3_R8/phy78_x16_lev01.bin',
(PID.TID 0000.0001)  299  PTRACERS_initialFile(96:133)=38*'../../../input/eccov3_R8/phy78_lev01.bin',
(PID.TID 0000.0001)  300  PTRACERS_initialFile(134:139)=6*' ',
(PID.TID 0000.0001)  301  PTRACERS_initialFile(140)=      '../../../input/eccov3_R8/phy78_x16_lev01.bin',
(PID.TID 0000.0001)  302  PTRACERS_initialFile(141:142)=2*' ',
(PID.TID 0000.0001)  303  PTRACERS_initialFile(143)=      '../../../input/eccov3_R8/phy78_x16_lev01.bin',
(PID.TID 0000.0001)  304  PTRACERS_initialFile(144:145)=2*' ',
(PID.TID 0000.0001)  305  PTRACERS_initialFile(146)=      '../../../input/eccov3_R8/phy78_x16_lev01.bin',
(PID.TID 0000.0001)  306  PTRACERS_initialFile(147:148)=2*' ',
(PID.TID 0000.0001)  307  PTRACERS_initialFile(149)=      '../../../input/eccov3_R8/phy78_x16_lev01.bin',
(PID.TID 0000.0001)  308  PTRACERS_initialFile(150:151)=2*' ',
(PID.TID 0000.0001)  309  PTRACERS_initialFile(152)=      '../../../input/eccov3_R8/phy78_x16_lev01.bin',
(PID.TID 0000.0001)  310  PTRACERS_initialFile(153)=      ' ',
(PID.TID 0000.0001)  311  PTRACERS_initialFile(154:157)=4*'../../../input/eccov3_R8/phy78_x16_lev01.bin',
(PID.TID 0000.0001)  312  PTRACERS_initialFile(158:171)=14*' ',
(PID.TID 0000.0001)  313  PTRACERS_initialFile(172:175)=4*'../../../input/eccov3_R8/phy78_x0.001_lev01.bin',
(PID.TID 0000.0001)  314  PTRACERS_initialFile(176)=     '../../../input/eccov3_R8/phy78_x0.004_lev01.bin',
(PID.TID 0000.0001)  315  PTRACERS_initialFile(177:178)=2*'../../../input/eccov3_R8/phy78_x0.001_lev01.bin',
(PID.TID 0000.0001)  316  PTRACERS_initialFile(179)=     '../../../input/eccov3_R8/phy78_x0.004_lev01.bin',
(PID.TID 0000.0001)  317  PTRACERS_initialFile(180:181)=2*'../../../input/eccov3_R8/phy78_x0.001_lev01.bin',
(PID.TID 0000.0001)  318  PTRACERS_initialFile(182)=     '../../../input/eccov3_R8/phy78_x0.004_lev01.bin',
(PID.TID 0000.0001)  319  PTRACERS_initialFile(183:184)=2*'../../../input/eccov3_R8/phy78_x0.001_lev01.bin',
(PID.TID 0000.0001)  320  PTRACERS_initialFile(185)=     '../../../input/eccov3_R8/phy78_x0.004_lev01.bin',
(PID.TID 0000.0001)  321  PTRACERS_initialFile(186:187)=2*'../../../input/eccov3_R8/phy78_x0.001_lev01.bin',
(PID.TID 0000.0001)  322  PTRACERS_initialFile(188)=     '../../../input/eccov3_R8/phy78_x0.004_lev01.bin',
(PID.TID 0000.0001)  323  PTRACERS_initialFile(189:195)=7*'../../../input/eccov3_R8/phy78_x0.001_lev01.bin',
(PID.TID 0000.0001)  324  PTRACERS_initialFile(196:209)=14*'../../../input/eccov3_R8/phy78_x0.001_lev01.bin',
(PID.TID 0000.0001)  325  PTRACERS_initialFile(210:233)=24*' ',
(PID.TID 0000.0001)  326  /
(PID.TID 0000.0001) // =======================================================
(PID.TID 0000.0001) // Parameter file "data.ptracers"
(PID.TID 0000.0001) // =======================================================
(PID.TID 0000.0001) > &PTRACERS_PARM01
(PID.TID 0000.0001) > PTRACERS_numInUse=233,
(PID.TID 0000.0001) > PTRACERS_Iter0= 0,
(PID.TID 0000.0001) >#
(PID.TID 0000.0001) > PTRACERS_advScheme=233*33,
(PID.TID 0000.0001) > PTRACERS_diffKh=233*0.E3,
(PID.TID 0000.0001) > PTRACERS_diffKr=233*1.E-5,
(PID.TID 0000.0001) > PTRACERS_useGMRedi=233*.TRUE.,
(PID.TID 0000.0001) > PTRACERS_useKPP=233*.TRUE.,
(PID.TID 0000.0001) >#
(PID.TID 0000.0001) > PTRACERS_names(1)= 'DIC',
(PID.TID 0000.0001) > PTRACERS_names(2)= 'NH4',
(PID.TID 0000.0001) > PTRACERS_names(3)= 'NO2',
(PID.TID 0000.0001) > PTRACERS_names(4)= 'NO3',
(PID.TID 0000.0001) > PTRACERS_names(5)= 'PO4',
(PID.TID 0000.0001) > PTRACERS_names(6)= 'SiO2',
(PID.TID 0000.0001) > PTRACERS_names(7)= 'FeT',
(PID.TID 0000.0001) > PTRACERS_names(8)= 'DOC',
(PID.TID 0000.0001) > PTRACERS_names(9)= 'DON',
(PID.TID 0000.0001) > PTRACERS_names(10)= 'DOP',
(PID.TID 0000.0001) > PTRACERS_names(11)= 'DOFe',
(PID.TID 0000.0001) > PTRACERS_names(12)= 'POC',
(PID.TID 0000.0001) > PTRACERS_names(13)= 'PON',
(PID.TID 0000.0001) > PTRACERS_names(14)= 'POP',
(PID.TID 0000.0001) > PTRACERS_names(15)= 'POSi',
(PID.TID 0000.0001) > PTRACERS_names(16)= 'POFe',
(PID.TID 0000.0001) > PTRACERS_names(17)= 'PIC',
(PID.TID 0000.0001) > PTRACERS_names(18)= 'ALK',
(PID.TID 0000.0001) > PTRACERS_names(19)= 'O2',
(PID.TID 0000.0001) > PTRACERS_names(20)= 'c01',
(PID.TID 0000.0001) > PTRACERS_names(21)= 'c02',
(PID.TID 0000.0001) > PTRACERS_names(22)= 'c03',
(PID.TID 0000.0001) > PTRACERS_names(23)= 'c04',
(PID.TID 0000.0001) > PTRACERS_names(24)= 'c05',
(PID.TID 0000.0001) > PTRACERS_names(25)= 'c06',
(PID.TID 0000.0001) > PTRACERS_names(26)= 'c07',
(PID.TID 0000.0001) > PTRACERS_names(27)= 'c08',
(PID.TID 0000.0001) > PTRACERS_names(28)= 'c09',
(PID.TID 0000.0001) > PTRACERS_names(29)= 'c10',
(PID.TID 0000.0001) > PTRACERS_names(30)= 'c11',
(PID.TID 0000.0001) > PTRACERS_names(31)= 'c12',
(PID.TID 0000.0001) > PTRACERS_names(32)= 'c13',
(PID.TID 0000.0001) > PTRACERS_names(33)= 'c14',
(PID.TID 0000.0001) > PTRACERS_names(34)= 'c15',
(PID.TID 0000.0001) > PTRACERS_names(35)= 'c16',
(PID.TID 0000.0001) > PTRACERS_names(36)= 'c17',
(PID.TID 0000.0001) > PTRACERS_names(37)= 'c18',
(PID.TID 0000.0001) > PTRACERS_names(38)= 'c19',
(PID.TID 0000.0001) > PTRACERS_names(39)= 'c20',
(PID.TID 0000.0001) > PTRACERS_names(40)= 'c21',
(PID.TID 0000.0001) > PTRACERS_names(41)= 'c22',
(PID.TID 0000.0001) > PTRACERS_names(42)= 'c23',
(PID.TID 0000.0001) > PTRACERS_names(43)= 'c24',
(PID.TID 0000.0001) > PTRACERS_names(44)= 'c25',
(PID.TID 0000.0001) > PTRACERS_names(45)= 'c26',
(PID.TID 0000.0001) > PTRACERS_names(46)= 'c27',
(PID.TID 0000.0001) > PTRACERS_names(47)= 'c28',
(PID.TID 0000.0001) > PTRACERS_names(48)= 'c29',
(PID.TID 0000.0001) > PTRACERS_names(49)= 'c30',
(PID.TID 0000.0001) > PTRACERS_names(50)= 'c31',
(PID.TID 0000.0001) > PTRACERS_names(51)= 'c32',
(PID.TID 0000.0001) > PTRACERS_names(52)= 'c33',
(PID.TID 0000.0001) > PTRACERS_names(53)= 'c34',
(PID.TID 0000.0001) > PTRACERS_names(54)= 'c35',
(PID.TID 0000.0001) > PTRACERS_names(55)= 'c36',
(PID.TID 0000.0001) > PTRACERS_names(56)= 'c37',
(PID.TID 0000.0001) > PTRACERS_names(57)= 'c38',
(PID.TID 0000.0001) > PTRACERS_names(58)= 'n01',
(PID.TID 0000.0001) > PTRACERS_names(59)= 'n02',
(PID.TID 0000.0001) > PTRACERS_names(60)= 'n03',
(PID.TID 0000.0001) > PTRACERS_names(61)= 'n04',
(PID.TID 0000.0001) > PTRACERS_names(62)= 'n05',
(PID.TID 0000.0001) > PTRACERS_names(63)= 'n06',
(PID.TID 0000.0001) > PTRACERS_names(64)= 'n07',
(PID.TID 0000.0001) > PTRACERS_names(65)= 'n08',
(PID.TID 0000.0001) > PTRACERS_names(66)= 'n09',
(PID.TID 0000.0001) > PTRACERS_names(67)= 'n10',
(PID.TID 0000.0001) > PTRACERS_names(68)= 'n11',
(PID.TID 0000.0001) > PTRACERS_names(69)= 'n12',
(PID.TID 0000.0001) > PTRACERS_names(70)= 'n13',
(PID.TID 0000.0001) > PTRACERS_names(71)= 'n14',
(PID.TID 0000.0001) > PTRACERS_names(72)= 'n15',
(PID.TID 0000.0001) > PTRACERS_names(73)= 'n16',
(PID.TID 0000.0001) > PTRACERS_names(74)= 'n17',
(PID.TID 0000.0001) > PTRACERS_names(75)= 'n18',
(PID.TID 0000.0001) > PTRACERS_names(76)= 'n19',
(PID.TID 0000.0001) > PTRACERS_names(77)= 'n20',
(PID.TID 0000.0001) > PTRACERS_names(78)= 'n21',
(PID.TID 0000.0001) > PTRACERS_names(79)= 'n22',
(PID.TID 0000.0001) > PTRACERS_names(80)= 'n23',
(PID.TID 0000.0001) > PTRACERS_names(81)= 'n24',
(PID.TID 0000.0001) > PTRACERS_names(82)= 'n25',
(PID.TID 0000.0001) > PTRACERS_names(83)= 'n26',
(PID.TID 0000.0001) > PTRACERS_names(84)= 'n27',
(PID.TID 0000.0001) > PTRACERS_names(85)= 'n28',
(PID.TID 0000.0001) > PTRACERS_names(86)= 'n29',
(PID.TID 0000.0001) > PTRACERS_names(87)= 'n30',
(PID.TID 0000.0001) > PTRACERS_names(88)= 'n31',
(PID.TID 0000.0001) > PTRACERS_names(89)= 'n32',
(PID.TID 0000.0001) > PTRACERS_names(90)= 'n33',
(PID.TID 0000.0001) > PTRACERS_names(91)= 'n34',
(PID.TID 0000.0001) > PTRACERS_names(92)= 'n35',
(PID.TID 0000.0001) > PTRACERS_names(93)= 'n36',
(PID.TID 0000.0001) > PTRACERS_names(94)= 'n37',
(PID.TID 0000.0001) > PTRACERS_names(95)= 'n38',
(PID.TID 0000.0001) > PTRACERS_names(96)= 'p01',
(PID.TID 0000.0001) > PTRACERS_names(97)= 'p02',
(PID.TID 0000.0001) > PTRACERS_names(98)= 'p03',
(PID.TID 0000.0001) > PTRACERS_names(99)= 'p04',
(PID.TID 0000.0001) > PTRACERS_names(100)= 'p05',
(PID.TID 0000.0001) > PTRACERS_names(101)= 'p06',
(PID.TID 0000.0001) > PTRACERS_names(102)= 'p07',
(PID.TID 0000.0001) > PTRACERS_names(103)= 'p08',
(PID.TID 0000.0001) > PTRACERS_names(104)= 'p09',
(PID.TID 0000.0001) > PTRACERS_names(105)= 'p10',
(PID.TID 0000.0001) > PTRACERS_names(106)= 'p11',
(PID.TID 0000.0001) > PTRACERS_names(107)= 'p12',
(PID.TID 0000.0001) > PTRACERS_names(108)= 'p13',
(PID.TID 0000.0001) > PTRACERS_names(109)= 'p14',
(PID.TID 0000.0001) > PTRACERS_names(110)= 'p15',
(PID.TID 0000.0001) > PTRACERS_names(111)= 'p16',
(PID.TID 0000.0001) > PTRACERS_names(112)= 'p17',
(PID.TID 0000.0001) > PTRACERS_names(113)= 'p18',
(PID.TID 0000.0001) > PTRACERS_names(114)= 'p19',
(PID.TID 0000.0001) > PTRACERS_names(115)= 'p20',
(PID.TID 0000.0001) > PTRACERS_names(116)= 'p21',
(PID.TID 0000.0001) > PTRACERS_names(117)= 'p22',
(PID.TID 0000.0001) > PTRACERS_names(118)= 'p23',
(PID.TID 0000.0001) > PTRACERS_names(119)= 'p24',
(PID.TID 0000.0001) > PTRACERS_names(120)= 'p25',
(PID.TID 0000.0001) > PTRACERS_names(121)= 'p26',
(PID.TID 0000.0001) > PTRACERS_names(122)= 'p27',
(PID.TID 0000.0001) > PTRACERS_names(123)= 'p28',
(PID.TID 0000.0001) > PTRACERS_names(124)= 'p29',
(PID.TID 0000.0001) > PTRACERS_names(125)= 'p30',
(PID.TID 0000.0001) > PTRACERS_names(126)= 'p31',
(PID.TID 0000.0001) > PTRACERS_names(127)= 'p32',
(PID.TID 0000.0001) > PTRACERS_names(128)= 'p33',
(PID.TID 0000.0001) > PTRACERS_names(129)= 'p34',
(PID.TID 0000.0001) > PTRACERS_names(130)= 'p35',
(PID.TID 0000.0001) > PTRACERS_names(131)= 'p36',
(PID.TID 0000.0001) > PTRACERS_names(132)= 'p37',
(PID.TID 0000.0001) > PTRACERS_names(133)= 'p38',
(PID.TID 0000.0001) > PTRACERS_names(134)= 'si01',
(PID.TID 0000.0001) > PTRACERS_names(135)= 'si02',
(PID.TID 0000.0001) > PTRACERS_names(136)= 'si03',
(PID.TID 0000.0001) > PTRACERS_names(137)= 'si04',
(PID.TID 0000.0001) > PTRACERS_names(138)= 'si05',
(PID.TID 0000.0001) > PTRACERS_names(139)= 'si06',
(PID.TID 0000.0001) > PTRACERS_names(140)= 'si07',
(PID.TID 0000.0001) > PTRACERS_names(141)= 'si08',
(PID.TID 0000.0001) > PTRACERS_names(142)= 'si09',
(PID.TID 0000.0001) > PTRACERS_names(143)= 'si10',
(PID.TID 0000.0001) > PTRACERS_names(144)= 'si11',
(PID.TID 0000.0001) > PTRACERS_names(145)= 'si12',
(PID.TID 0000.0001) > PTRACERS_names(146)= 'si13',
(PID.TID 0000.0001) > PTRACERS_names(147)= 'si14',
(PID.TID 0000.0001) > PTRACERS_names(148)= 'si15',
(PID.TID 0000.0001) > PTRACERS_names(149)= 'si16',
(PID.TID 0000.0001) > PTRACERS_names(150)= 'si17',
(PID.TID 0000.0001) > PTRACERS_names(151)= 'si18',
(PID.TID 0000.0001) > PTRACERS_names(152)= 'si19',
(PID.TID 0000.0001) > PTRACERS_names(153)= 'si20',
(PID.TID 0000.0001) > PTRACERS_names(154)= 'si21',
(PID.TID 0000.0001) > PTRACERS_names(155)= 'si22',
(PID.TID 0000.0001) > PTRACERS_names(156)= 'si23',
(PID.TID 0000.0001) > PTRACERS_names(157)= 'si24',
(PID.TID 0000.0001) > PTRACERS_names(158)= 'si25',
(PID.TID 0000.0001) > PTRACERS_names(159)= 'si26',
(PID.TID 0000.0001) > PTRACERS_names(160)= 'si27',
(PID.TID 0000.0001) > PTRACERS_names(161)= 'si28',
(PID.TID 0000.0001) > PTRACERS_names(162)= 'si29',
(PID.TID 0000.0001) > PTRACERS_names(163)= 'si30',
(PID.TID 0000.0001) > PTRACERS_names(164)= 'si31',
(PID.TID 0000.0001) > PTRACERS_names(165)= 'si32',
(PID.TID 0000.0001) > PTRACERS_names(166)= 'si33',
(PID.TID 0000.0001) > PTRACERS_names(167)= 'si34',
(PID.TID 0000.0001) > PTRACERS_names(168)= 'si35',
(PID.TID 0000.0001) > PTRACERS_names(169)= 'si36',
(PID.TID 0000.0001) > PTRACERS_names(170)= 'si37',
(PID.TID 0000.0001) > PTRACERS_names(171)= 'si38',
(PID.TID 0000.0001) > PTRACERS_names(172)= 'fe01',
(PID.TID 0000.0001) > PTRACERS_names(173)= 'fe02',
(PID.TID 0000.0001) > PTRACERS_names(174)= 'fe03',
(PID.TID 0000.0001) > PTRACERS_names(175)= 'fe04',
(PID.TID 0000.0001) > PTRACERS_names(176)= 'fe05',
(PID.TID 0000.0001) > PTRACERS_names(177)= 'fe06',
(PID.TID 0000.0001) > PTRACERS_names(178)= 'fe07',
(PID.TID 0000.0001) > PTRACERS_names(179)= 'fe08',
(PID.TID 0000.0001) > PTRACERS_names(180)= 'fe09',
(PID.TID 0000.0001) > PTRACERS_names(181)= 'fe10',
(PID.TID 0000.0001) > PTRACERS_names(182)= 'fe11',
(PID.TID 0000.0001) > PTRACERS_names(183)= 'fe12',
(PID.TID 0000.0001) > PTRACERS_names(184)= 'fe13',
(PID.TID 0000.0001) > PTRACERS_names(185)= 'fe14',
(PID.TID 0000.0001) > PTRACERS_names(186)= 'fe15',
(PID.TID 0000.0001) > PTRACERS_names(187)= 'fe16',
(PID.TID 0000.0001) > PTRACERS_names(188)= 'fe17',
(PID.TID 0000.0001) > PTRACERS_names(189)= 'fe18',
(PID.TID 0000.0001) > PTRACERS_names(190)= 'fe19',
(PID.TID 0000.0001) > PTRACERS_names(191)= 'fe20',
(PID.TID 0000.0001) > PTRACERS_names(192)= 'fe21',
(PID.TID 0000.0001) > PTRACERS_names(193)= 'fe22',
(PID.TID 0000.0001) > PTRACERS_names(194)= 'fe23',
(PID.TID 0000.0001) > PTRACERS_names(195)= 'fe24',
(PID.TID 0000.0001) > PTRACERS_names(196)= 'fe25',
(PID.TID 0000.0001) > PTRACERS_names(197)= 'fe26',
(PID.TID 0000.0001) > PTRACERS_names(198)= 'fe27',
(PID.TID 0000.0001) > PTRACERS_names(199)= 'fe28',
(PID.TID 0000.0001) > PTRACERS_names(200)= 'fe29',
(PID.TID 0000.0001) > PTRACERS_names(201)= 'fe30',
(PID.TID 0000.0001) > PTRACERS_names(202)= 'fe31',
(PID.TID 0000.0001) > PTRACERS_names(203)= 'fe32',
(PID.TID 0000.0001) > PTRACERS_names(204)= 'fe33',
(PID.TID 0000.0001) > PTRACERS_names(205)= 'fe34',
(PID.TID 0000.0001) > PTRACERS_names(206)= 'fe35',
(PID.TID 0000.0001) > PTRACERS_names(207)= 'fe36',
(PID.TID 0000.0001) > PTRACERS_names(208)= 'fe37',
(PID.TID 0000.0001) > PTRACERS_names(209)= 'fe38',
(PID.TID 0000.0001) > PTRACERS_names(210)= 'Chl01',
(PID.TID 0000.0001) > PTRACERS_names(211)= 'Chl02',
(PID.TID 0000.0001) > PTRACERS_names(212)= 'Chl03',
(PID.TID 0000.0001) > PTRACERS_names(213)= 'Chl04',
(PID.TID 0000.0001) > PTRACERS_names(214)= 'Chl05',
(PID.TID 0000.0001) > PTRACERS_names(215)= 'Chl06',
(PID.TID 0000.0001) > PTRACERS_names(216)= 'Chl07',
(PID.TID 0000.0001) > PTRACERS_names(217)= 'Chl08',
(PID.TID 0000.0001) > PTRACERS_names(218)= 'Chl09',
(PID.TID 0000.0001) > PTRACERS_names(219)= 'Chl10',
(PID.TID 0000.0001) > PTRACERS_names(220)= 'Chl11',
(PID.TID 0000.0001) > PTRACERS_names(221)= 'Chl12',
(PID.TID 0000.0001) > PTRACERS_names(222)= 'Chl13',
(PID.TID 0000.0001) > PTRACERS_names(223)= 'Chl14',
(PID.TID 0000.0001) > PTRACERS_names(224)= 'Chl15',
(PID.TID 0000.0001) > PTRACERS_names(225)= 'Chl16',
(PID.TID 0000.0001) > PTRACERS_names(226)= 'Chl17',
(PID.TID 0000.0001) > PTRACERS_names(227)= 'Chl18',
(PID.TID 0000.0001) > PTRACERS_names(228)= 'Chl19',
(PID.TID 0000.0001) > PTRACERS_names(229)= 'Chl20',
(PID.TID 0000.0001) > PTRACERS_names(230)= 'Chl21',
(PID.TID 0000.0001) > PTRACERS_names(231)= 'Chl22',
(PID.TID 0000.0001) > PTRACERS_names(232)= 'Chl23',
(PID.TID 0000.0001) > PTRACERS_names(233)= 'Chl24',
(PID.TID 0000.0001) >#
(PID.TID 0000.0001) > PTRACERS_units(1)='mmol C/m^3',
(PID.TID 0000.0001) > PTRACERS_units(2)='mmol N/m^3',
(PID.TID 0000.0001) > PTRACERS_units(3)='mmol N/m^3',
(PID.TID 0000.0001) > PTRACERS_units(4)='mmol N/m^3',
(PID.TID 0000.0001) > PTRACERS_units(5)='mmol P/m^3',
(PID.TID 0000.0001) > PTRACERS_units(6)='mmol Si/m^3',
(PID.TID 0000.0001) > PTRACERS_units(7)='mmol Fe/m^3',
(PID.TID 0000.0001) > PTRACERS_units(8)='mmol C/m^3',
(PID.TID 0000.0001) > PTRACERS_units(9)='mmol N/m^3',
(PID.TID 0000.0001) > PTRACERS_units(10)='mmol P/m^3',
(PID.TID 0000.0001) > PTRACERS_units(11)='mmol Fe/m^3',
(PID.TID 0000.0001) > PTRACERS_units(12)='mmol C/m^3',
(PID.TID 0000.0001) > PTRACERS_units(13)='mmol N/m^3',
(PID.TID 0000.0001) > PTRACERS_units(14)='mmol P/m^3',
(PID.TID 0000.0001) > PTRACERS_units(15)='mmol Si/m^3',
(PID.TID 0000.0001) > PTRACERS_units(16)='mmol Fe/m^3',
(PID.TID 0000.0001) > PTRACERS_units(17)='mmol C/m^3',
(PID.TID 0000.0001) > PTRACERS_units(18)='mmol eq/m^3',
(PID.TID 0000.0001) > PTRACERS_units(19)='mmol O/m^3',
(PID.TID 0000.0001) > PTRACERS_units(20:57)=38*'mmol C/m^3',
(PID.TID 0000.0001) > PTRACERS_units(58:95)=38*'mmol N/m^3',
(PID.TID 0000.0001) > PTRACERS_units(96:133)=38*'mmol P/m^3',
(PID.TID 0000.0001) > PTRACERS_units(134:171)=38*'mmol Si/m^3',
(PID.TID 0000.0001) > PTRACERS_units(172:209)=38*'mmol Fe/m^3',
(PID.TID 0000.0001) > PTRACERS_units(210:233)=24*'mg Chl a/m^3',
(PID.TID 0000.0001) >#
(PID.TID 0000.0001) > PTRACERS_initialFile(1)='../../../input/eccov3_R8/glodap_tco2_ann-3d.bin',
(PID.TID 0000.0001) > PTRACERS_initialFile(2)='../../../input/DARWIN_ECCO_run17_R8/nh4_y2000.data',
(PID.TID 0000.0001) > PTRACERS_initialFile(3)='../../../input/DARWIN_ECCO_run17_R8/no2_y2000.data',
(PID.TID 0000.0001) > PTRACERS_initialFile(4)='../../../input/eccov3_R8/lev01_nitrate_ann-3d.bin',
(PID.TID 0000.0001) > PTRACERS_initialFile(5)='../../../input/eccov3_R8/lev01_phosphate_ann-3d.bin',
(PID.TID 0000.0001) > PTRACERS_initialFile(6)='../../../input/eccov3_R8/lev01_silicate_ann-3d.bin',
(PID.TID 0000.0001) > PTRACERS_initialFile(7)='../../../input/DARWIN_ECCO_run17_R8/fet_y2000.data',
(PID.TID 0000.0001) > PTRACERS_initialFile(8)='../../../input/DARWIN_ECCO_run17_R8/doc_y2000.data',
(PID.TID 0000.0001) > PTRACERS_initialFile(9)='../../../input/DARWIN_ECCO_run17_R8/don_y2000.data',
(PID.TID 0000.0001) > PTRACERS_initialFile(10)='../../../input/DARWIN_ECCO_run17_R8/dop_y2000.data',
(PID.TID 0000.0001) > PTRACERS_initialFile(11)='../../../input/DARWIN_ECCO_run17_R8/dofe_y2000.data',
(PID.TID 0000.0001) > PTRACERS_initialFile(12)='../../../input/DARWIN_ECCO_run17_R8/poc_y2000.data',
(PID.TID 0000.0001) > PTRACERS_initialFile(13)='../../../input/DARWIN_ECCO_run17_R8/pon_y2000.data',
(PID.TID 0000.0001) > PTRACERS_initialFile(14)='../../../input/DARWIN_ECCO_run17_R8/pop_y2000.data',
(PID.TID 0000.0001) > PTRACERS_initialFile(15)='../../../input/DARWIN_ECCO_run17_R8/posi_y2000.data',
(PID.TID 0000.0001) > PTRACERS_initialFile(16)='../../../input/DARWIN_ECCO_run17_R8/pofe_y2000.data',
(PID.TID 0000.0001) > PTRACERS_initialFile(17)='../../../input/DARWIN_ECCO_run17_R8/pic_y2000.data',
(PID.TID 0000.0001) > PTRACERS_initialFile(18)='../../../input/eccov3_R8/glodap_alk_ann-3d.bin',
(PID.TID 0000.0001) > PTRACERS_initialFile(19)='../../../input/eccov3_R8/lev01_oxygen_micromolar_ann-3d.bin',
(PID.TID 0000.0001) > PTRACERS_initialFile(20:57)=38*'../../../input/eccov3_R8/phy78_x120_lev01.bin',
(PID.TID 0000.0001) > PTRACERS_initialFile(58:61)=4*'../../../input/eccov3_R8/phy78_x16_lev01.bin',
(PID.TID 0000.0001) > PTRACERS_initialFile(62)=     '../../../input/eccov3_R8/phy78_x40_lev01.bin',
(PID.TID 0000.0001) > PTRACERS_initialFile(63:64)=2*'../../../input/eccov3_R8/phy78_x16_lev01.bin',
(PID.TID 0000.0001) > PTRACERS_initialFile(65)=     '../../../input/eccov3_R8/phy78_x40_lev01.bin',
(PID.TID 0000.0001) > PTRACERS_initialFile(66:67)=2*'../../../input/eccov3_R8/phy78_x16_lev01.bin',
(PID.TID 0000.0001) > PTRACERS_initialFile(68)=     '../../../input/eccov3_R8/phy78_x40_lev01.bin',
(PID.TID 0000.0001) > PTRACERS_initialFile(69:70)=2*'../../../input/eccov3_R8/phy78_x16_lev01.bin',
(PID.TID 0000.0001) > PTRACERS_initialFile(71)=     '../../../input/eccov3_R8/phy78_x40_lev01.bin',
(PID.TID 0000.0001) > PTRACERS_initialFile(72:73)=2*'../../../input/eccov3_R8/phy78_x16_lev01.bin',
(PID.TID 0000.0001) > PTRACERS_initialFile(74)=     '../../../input/eccov3_R8/phy78_x40_lev01.bin',
(PID.TID 0000.0001) > PTRACERS_initialFile(75:81)=7*'../../../input/eccov3_R8/phy78_x16_lev01.bin',
(PID.TID 0000.0001) > PTRACERS_initialFile(82:95)=14*'../../../input/eccov3_R8/phy78_x16_lev01.bin',
(PID.TID 0000.0001) > PTRACERS_initialFile(96:133)=38*'../../../input/eccov3_R8/phy78_lev01.bin',
(PID.TID 0000.0001) > PTRACERS_initialFile(134:139)=6*' ',
(PID.TID 0000.0001) > PTRACERS_initialFile(140)=      '../../../input/eccov3_R8/phy78_x16_lev01.bin',
(PID.TID 0000.0001) > PTRACERS_initialFile(141:142)=2*' ',
(PID.TID 0000.0001) > PTRACERS_initialFile(143)=      '../../../input/eccov3_R8/phy78_x16_lev01.bin',
(PID.TID 0000.0001) > PTRACERS_initialFile(144:145)=2*' ',
(PID.TID 0000.0001) > PTRACERS_initialFile(146)=      '../../../input/eccov3_R8/phy78_x16_lev01.bin',
(PID.TID 0000.0001) > PTRACERS_initialFile(147:148)=2*' ',
(PID.TID 0000.0001) > PTRACERS_initialFile(149)=      '../../../input/eccov3_R8/phy78_x16_lev01.bin',
(PID.TID 0000.0001) > PTRACERS_initialFile(150:151)=2*' ',
(PID.TID 0000.0001) > PTRACERS_initialFile(152)=      '../../../input/eccov3_R8/phy78_x16_lev01.bin',
(PID.TID 0000.0001) > PTRACERS_initialFile(153)=      ' ',
(PID.TID 0000.0001) > PTRACERS_initialFile(154:157)=4*'../../../input/eccov3_R8/phy78_x16_lev01.bin',
(PID.TID 0000.0001) > PTRACERS_initialFile(158:171)=14*' ',
(PID.TID 0000.0001) > PTRACERS_initialFile(172:175)=4*'../../../input/eccov3_R8/phy78_x0.001_lev01.bin',
(PID.TID 0000.0001) > PTRACERS_initialFile(176)=     '../../../input/eccov3_R8/phy78_x0.004_lev01.bin',
(PID.TID 0000.0001) > PTRACERS_initialFile(177:178)=2*'../../../input/eccov3_R8/phy78_x0.001_lev01.bin',
(PID.TID 0000.0001) > PTRACERS_initialFile(179)=     '../../../input/eccov3_R8/phy78_x0.004_lev01.bin',
(PID.TID 0000.0001) > PTRACERS_initialFile(180:181)=2*'../../../input/eccov3_R8/phy78_x0.001_lev01.bin',
(PID.TID 0000.0001) > PTRACERS_initialFile(182)=     '../../../input/eccov3_R8/phy78_x0.004_lev01.bin',
(PID.TID 0000.0001) > PTRACERS_initialFile(183:184)=2*'../../../input/eccov3_R8/phy78_x0.001_lev01.bin',
(PID.TID 0000.0001) > PTRACERS_initialFile(185)=     '../../../input/eccov3_R8/phy78_x0.004_lev01.bin',
(PID.TID 0000.0001) > PTRACERS_initialFile(186:187)=2*'../../../input/eccov3_R8/phy78_x0.001_lev01.bin',
(PID.TID 0000.0001) > PTRACERS_initialFile(188)=     '../../../input/eccov3_R8/phy78_x0.004_lev01.bin',
(PID.TID 0000.0001) > PTRACERS_initialFile(189:195)=7*'../../../input/eccov3_R8/phy78_x0.001_lev01.bin',
(PID.TID 0000.0001) > PTRACERS_initialFile(196:209)=14*'../../../input/eccov3_R8/phy78_x0.001_lev01.bin',
(PID.TID 0000.0001) > PTRACERS_initialFile(210:233)=24*' ',
(PID.TID 0000.0001) > /
(PID.TID 0000.0001) 
(PID.TID 0000.0001)  PTRACERS_READPARMS: finished reading data.ptracers
(PID.TID 0000.0001)  GCHEM_READPARMS: opening data.gchem
(PID.TID 0000.0001)  OPEN_COPY_DATA_FILE: opening file data.gchem
(PID.TID 0000.0001) // =======================================================
(PID.TID 0000.0001) // Removing comments from "data.gchem"
(PID.TID 0000.0001) // =======================================================
(PID.TID 0000.0001)    1  &GCHEM_PARM01
(PID.TID 0000.0001)    2   useGUD=.TRUE.,
(PID.TID 0000.0001)    3   nsubtime=1,
(PID.TID 0000.0001)    4  /
(PID.TID 0000.0001) // =======================================================
(PID.TID 0000.0001) // Parameter file "data.gchem"
(PID.TID 0000.0001) // =======================================================
(PID.TID 0000.0001) > &GCHEM_PARM01
(PID.TID 0000.0001) >  useGUD=.TRUE.,
(PID.TID 0000.0001) >  nsubtime=1,
(PID.TID 0000.0001) > /
(PID.TID 0000.0001) 
(PID.TID 0000.0001)  GCHEM_READPARMS: finished reading data.gchem
(PID.TID 0000.0001)  GUD_READPARMS: opening data.gud
(PID.TID 0000.0001)  OPEN_COPY_DATA_FILE: opening file data.gud
(PID.TID 0000.0001) // =======================================================
(PID.TID 0000.0001) // Removing comments from "data.gud"
(PID.TID 0000.0001) // =======================================================
(PID.TID 0000.0001)    1  &GUD_FORCING_PARAMS
(PID.TID 0000.0001)    2  gud_chlInitBalanced= T,
(PID.TID 0000.0001)    3  /
(PID.TID 0000.0001)    4  &GUD_EXF_PARAMS
(PID.TID 0000.0001)    5  ironFile='/home/stephdut/Input/input_ecco/mahowald2009_solubile_current_smooth_oce_mth-2d.bin',
(PID.TID 0000.0001)    6  ironPeriod= -12.,
(PID.TID 0000.0001)    7  gud_inscal_iron= 1000.,
(PID.TID 0000.0001)    8  PARFile='/home/stephdut/Input/input_ecco/ecco_oasim_total_below_oneband_einm2d.bin',
(PID.TID 0000.0001)    9  PARPeriod= -12.,
(PID.TID 0000.0001)   10  gud_inscal_PAR= 11.574074074074,
(PID.TID 0000.0001)   11  windFile='../../../input/eccov3/tren_speed_mth-2d.bin',
(PID.TID 0000.0001)   12  windPeriod= -12.,
(PID.TID 0000.0001)   13  icefile = '../../../input/eccov3/SIarea.bin',
(PID.TID 0000.0001)   14  icestartdate1 = 19990101,
(PID.TID 0000.0001)   15  icestartdate2 = 120000,
(PID.TID 0000.0001)   16  iceperiod     = 86400.0,
(PID.TID 0000.0001)   17  /
(PID.TID 0000.0001)   18  &GUD_PARAMS
(PID.TID 0000.0001)   19  idebug=271,
(PID.TID 0000.0001)   20  jdebug=63,
(PID.TID 0000.0001)   21  gud_allometric= T,
(PID.TID 0000.0001)   22  gud_sort_biovol= T,
(PID.TID 0000.0001)   23  gud_seed= 56,
(PID.TID 0000.0001)   24  gud_read_phos= F,
(PID.TID 0000.0001)   25  tempCoeffArr= 0.8,
(PID.TID 0000.0001)   26  PARmin= 0.1,
(PID.TID 0000.0001)   27  alpfe= 1.0,
(PID.TID 0000.0001)   28  freefemax = .1E-3,
(PID.TID 0000.0001)   29  depthfesed= 7000.,
(PID.TID 0000.0001)   30  scav_rat= 1.73611111111111111111E-7,
(PID.TID 0000.0001)   31  kdoc=  3.8580246913580247E-7,  ! 1/30day
(PID.TID 0000.0001)   32  kdop=  3.8580246913580247E-7,  ! 1/30day
(PID.TID 0000.0001)   33  kdon=  3.8580246913580247E-7,  ! 1/30day
(PID.TID 0000.0001)   34  kdofe= 3.8580246913580247E-7,  ! 1/30day
(PID.TID 0000.0001)   35  kPOC=  3.8580246913580247E-7,  ! 1/30day
(PID.TID 0000.0001)   36  kPOP=  3.8580246913580247E-7,  ! 1/30day
(PID.TID 0000.0001)   37  kPON=  3.8580246913580247E-7,  ! 1/30day
(PID.TID 0000.0001)   38  kPOFe= 3.8580246913580247E-7,  ! 1/30day
(PID.TID 0000.0001)   39  kPOSi= 7.7160493827160493E-8,  ! 1/150day
(PID.TID 0000.0001)   40  phygrazmin= 120E-10,
(PID.TID 0000.0001)   41  gud_atmos_pCO2= 278E-6,
(PID.TID 0000.0001)   42  /
(PID.TID 0000.0001)   43  &GUD_RADTRANS_PARAMS
(PID.TID 0000.0001)   44  /
(PID.TID 0000.0001)   45  &GUD_RANDOM_PARAMS
(PID.TID 0000.0001)   46  /
(PID.TID 0000.0001)   47  &GUD_ALLOMETRIC_PARAMS
(PID.TID 0000.0001)   48  grpsz(:)=       9, 0, 2, 1, 5, 6, 1,14,
(PID.TID 0000.0001)   49  grp_photo(:)=   1, 1, 1, 1, 1, 1, 1, 0,
(PID.TID 0000.0001)   50  grp_pred(:)=    0, 0, 0, 0, 0, 0, 0, 1,
(PID.TID 0000.0001)   51  grp_prey(:)=    1, 1, 1, 1, 1, 1, 1, 0,
(PID.TID 0000.0001)   52  grp_DIACOC(:)=  1, 0, 0, 0, 0, 2, 0, 0,
(PID.TID 0000.0001)   53  grp_DIAZO(:)=   0, 0, 0, 0, 1, 0, 0, 0,
(PID.TID 0000.0001)   54  grp_NSOURCE(:)= 3, 3, 3, 3, 0, 3, 3, 0,
(PID.TID 0000.0001)   55
(PID.TID 0000.0001)   56  grp_mqyield(:)= 7*5E-5,
(PID.TID 0000.0001)   57  grp_chl2cmax(:)= 7*.3,
(PID.TID 0000.0001)   58  grp_acclimtimescl(:)= 7*5.7870370370370370E-6,
(PID.TID 0000.0001)   59  grp_noMortTempFunc(:)=  8*0,
(PID.TID 0000.0001)   60  grp_noMort2TempFunc(:)= 8*0,
(PID.TID 0000.0001)   61  biovol0(1)=  41.54320512418612,   ! D
(PID.TID 0000.0001)   62  biovol0(2)=  0.,
(PID.TID 0000.0001)   63  biovol0(3)=  1.2008810730146715,  ! s
(PID.TID 0000.0001)   64  biovol0(4)=  0.11310973893337056, ! P
(PID.TID 0000.0001)   65  biovol0(5)=  12.749700999437144,  ! T
(PID.TID 0000.0001)   66  biovol0(6)=  12.749700999437144,  ! C
(PID.TID 0000.0001)   67  biovol0(7)=  0.3685530418524794,  ! S
(PID.TID 0000.0001)   68  biovol0(8)=  1.2008810730146715,  ! Z
(PID.TID 0000.0001)   69  biovolfac(:)= 8*3.2583670100200877,
(PID.TID 0000.0001)   70  a_biosink(:)= 7*6.951416635391563E-7, 0.,  ! .05*dm**.85
(PID.TID 0000.0001)   71  b_biosink(:)= 7*.2833333333333333, 0.,
(PID.TID 0000.0001)   72  a_vmax_DIC(1)= 8.680555555555556E-5,   ! 7.5/day
(PID.TID 0000.0001)   73  a_vmax_DIC(2)= 2.3148148148148147E-5,  ! 2.0/day
(PID.TID 0000.0001)   74  a_vmax_DIC(3)= 6.944444444444444E-6,   ! 0.6/day
(PID.TID 0000.0001)   75  a_vmax_DIC(4)= 6.944444444444444E-6,   ! 0.6/day
(PID.TID 0000.0001)   76  a_vmax_DIC(5)= 1.0416666666666666E-5,  ! 0.9/day
(PID.TID 0000.0001)   77  a_vmax_DIC(6)= 3.472222222222222E-5,   ! 3.0/day
(PID.TID 0000.0001)   78  a_vmax_DIC(7)= 6.944444444444444E-6,   ! 0.6/day
(PID.TID 0000.0001)   79  b_vmax_DIC(:)= -0.15, -0.15, 0.07, 0.07, -0.15, -0.15, 0.07,
(PID.TID 0000.0001)   80  gud_effective_ksat= T,
(PID.TID 0000.0001)   81  grp_ExportFrac(:)= .4, .4, .1, .1, .4, .4, .1, .6,
(PID.TID 0000.0001)   82  grp_ExportFracGraz(1:7)= .8,
(PID.TID 0000.0001)   83  grp_R_ChlC(8)= 0.,
(PID.TID 0000.0001)   84  a_graz(8)= 2.3148148148148147e-05,  ! 2/day
(PID.TID 0000.0001)   85  b_graz(8)= -.16,
(PID.TID 0000.0001)   86  grp_mort(:)= 7*1.6534391534391533e-06, 2.3148148148148148e-07,  ! 1/7days, 1/50days
(PID.TID 0000.0001)   87  grp_mort2(:)= 7*0., 9.259259259259258e-07,  ! 16*.6/120/day
(PID.TID 0000.0001)   88  grp_tempcoeff2= 7*.0003,
(PID.TID 0000.0001)   89  grp_R_PC(:)= 8*0.008333333333333333,
(PID.TID 0000.0001)   90  grp_R_FeC(:)= 4*0.008333333333333333E-3, 0.03333333333333333E-3, 3*0.008333333333333333E-3,
(PID.TID 0000.0001)   91  grp_R_NC(:)= 4*0.13333333333333333, 0.3333333333333333, 3*0.13333333333333333,
(PID.TID 0000.0001)   92  grp_R_SiC(:)= 0.13333333333333333, 7*0.,
(PID.TID 0000.0001)   93  grp_R_PICPOC(:)= 5*0., .8, 2*0.,
(PID.TID 0000.0001)   94  a_kg(8)= 6.,
(PID.TID 0000.0001)   95  b_kg(8)= 0.,
(PID.TID 0000.0001)   96
(PID.TID 0000.0001)   97  grp_ass_eff(:)= 7*0.5,
(PID.TID 0000.0001)   98  /
(PID.TID 0000.0001) // =======================================================
(PID.TID 0000.0001) // Parameter file "data.gud"
(PID.TID 0000.0001) // =======================================================
(PID.TID 0000.0001) >########################
(PID.TID 0000.0001) > &GUD_FORCING_PARAMS
(PID.TID 0000.0001) > gud_chlInitBalanced= T,
(PID.TID 0000.0001) > /
(PID.TID 0000.0001) >########################
(PID.TID 0000.0001) > &GUD_EXF_PARAMS
(PID.TID 0000.0001) > ironFile='/home/stephdut/Input/input_ecco/mahowald2009_solubile_current_smooth_oce_mth-2d.bin',
(PID.TID 0000.0001) > ironPeriod= -12.,
(PID.TID 0000.0001) > gud_inscal_iron= 1000.,
(PID.TID 0000.0001) > PARFile='/home/stephdut/Input/input_ecco/ecco_oasim_total_below_oneband_einm2d.bin',
(PID.TID 0000.0001) > PARPeriod= -12.,
(PID.TID 0000.0001) > gud_inscal_PAR= 11.574074074074,
(PID.TID 0000.0001) > windFile='../../../input/eccov3/tren_speed_mth-2d.bin',
(PID.TID 0000.0001) > windPeriod= -12.,
(PID.TID 0000.0001) > icefile = '../../../input/eccov3/SIarea.bin',
(PID.TID 0000.0001) > icestartdate1 = 19990101,
(PID.TID 0000.0001) > icestartdate2 = 120000,
(PID.TID 0000.0001) > iceperiod     = 86400.0,
(PID.TID 0000.0001) > /
(PID.TID 0000.0001) >########################
(PID.TID 0000.0001) > &GUD_PARAMS
(PID.TID 0000.0001) > idebug=271,
(PID.TID 0000.0001) > jdebug=63,
(PID.TID 0000.0001) > gud_allometric= T,
(PID.TID 0000.0001) > gud_sort_biovol= T,
(PID.TID 0000.0001) > gud_seed= 56,
(PID.TID 0000.0001) > gud_read_phos= F,
(PID.TID 0000.0001) > tempCoeffArr= 0.8,
(PID.TID 0000.0001) > PARmin= 0.1,
(PID.TID 0000.0001) > alpfe= 1.0,
(PID.TID 0000.0001) > freefemax = .1E-3,
(PID.TID 0000.0001) > depthfesed= 7000.,
(PID.TID 0000.0001) > scav_rat= 1.73611111111111111111E-7,
(PID.TID 0000.0001) > kdoc=  3.8580246913580247E-7,  ! 1/30day
(PID.TID 0000.0001) > kdop=  3.8580246913580247E-7,  ! 1/30day
(PID.TID 0000.0001) > kdon=  3.8580246913580247E-7,  ! 1/30day
(PID.TID 0000.0001) > kdofe= 3.8580246913580247E-7,  ! 1/30day
(PID.TID 0000.0001) > kPOC=  3.8580246913580247E-7,  ! 1/30day
(PID.TID 0000.0001) > kPOP=  3.8580246913580247E-7,  ! 1/30day
(PID.TID 0000.0001) > kPON=  3.8580246913580247E-7,  ! 1/30day
(PID.TID 0000.0001) > kPOFe= 3.8580246913580247E-7,  ! 1/30day
(PID.TID 0000.0001) > kPOSi= 7.7160493827160493E-8,  ! 1/150day
(PID.TID 0000.0001) > phygrazmin= 120E-10,
(PID.TID 0000.0001) > gud_atmos_pCO2= 278E-6,
(PID.TID 0000.0001) > /
(PID.TID 0000.0001) >########################
(PID.TID 0000.0001) > &GUD_RADTRANS_PARAMS
(PID.TID 0000.0001) > /
(PID.TID 0000.0001) >########################
(PID.TID 0000.0001) > &GUD_RANDOM_PARAMS
(PID.TID 0000.0001) > /
(PID.TID 0000.0001) >########################
(PID.TID 0000.0001) > &GUD_ALLOMETRIC_PARAMS
(PID.TID 0000.0001) >#                1  2  3  4  5  6  7  8
(PID.TID 0000.0001) >#                D  l  s  P  T  C  S  Z
(PID.TID 0000.0001) > grpsz(:)=       9, 0, 2, 1, 5, 6, 1,14,
(PID.TID 0000.0001) > grp_photo(:)=   1, 1, 1, 1, 1, 1, 1, 0,
(PID.TID 0000.0001) > grp_pred(:)=    0, 0, 0, 0, 0, 0, 0, 1,
(PID.TID 0000.0001) > grp_prey(:)=    1, 1, 1, 1, 1, 1, 1, 0,
(PID.TID 0000.0001) > grp_DIACOC(:)=  1, 0, 0, 0, 0, 2, 0, 0,
(PID.TID 0000.0001) > grp_DIAZO(:)=   0, 0, 0, 0, 1, 0, 0, 0,
(PID.TID 0000.0001) > grp_NSOURCE(:)= 3, 3, 3, 3, 0, 3, 3, 0,
(PID.TID 0000.0001) >
(PID.TID 0000.0001) > grp_mqyield(:)= 7*5E-5,
(PID.TID 0000.0001) > grp_chl2cmax(:)= 7*.3,
(PID.TID 0000.0001) > grp_acclimtimescl(:)= 7*5.7870370370370370E-6,
(PID.TID 0000.0001) > grp_noMortTempFunc(:)=  8*0,
(PID.TID 0000.0001) > grp_noMort2TempFunc(:)= 8*0,
(PID.TID 0000.0001) > biovol0(1)=  41.54320512418612,   ! D
(PID.TID 0000.0001) > biovol0(2)=  0.,
(PID.TID 0000.0001) > biovol0(3)=  1.2008810730146715,  ! s
(PID.TID 0000.0001) > biovol0(4)=  0.11310973893337056, ! P
(PID.TID 0000.0001) > biovol0(5)=  12.749700999437144,  ! T
(PID.TID 0000.0001) > biovol0(6)=  12.749700999437144,  ! C
(PID.TID 0000.0001) > biovol0(7)=  0.3685530418524794,  ! S
(PID.TID 0000.0001) > biovol0(8)=  1.2008810730146715,  ! Z
(PID.TID 0000.0001) > biovolfac(:)= 8*3.2583670100200877,
(PID.TID 0000.0001) > a_biosink(:)= 7*6.951416635391563E-7, 0.,  ! .05*dm**.85
(PID.TID 0000.0001) > b_biosink(:)= 7*.2833333333333333, 0.,
(PID.TID 0000.0001) > a_vmax_DIC(1)= 8.680555555555556E-5,   ! 7.5/day
(PID.TID 0000.0001) > a_vmax_DIC(2)= 2.3148148148148147E-5,  ! 2.0/day
(PID.TID 0000.0001) > a_vmax_DIC(3)= 6.944444444444444E-6,   ! 0.6/day
(PID.TID 0000.0001) > a_vmax_DIC(4)= 6.944444444444444E-6,   ! 0.6/day
(PID.TID 0000.0001) > a_vmax_DIC(5)= 1.0416666666666666E-5,  ! 0.9/day
(PID.TID 0000.0001) > a_vmax_DIC(6)= 3.472222222222222E-5,   ! 3.0/day
(PID.TID 0000.0001) > a_vmax_DIC(7)= 6.944444444444444E-6,   ! 0.6/day
(PID.TID 0000.0001) > b_vmax_DIC(:)= -0.15, -0.15, 0.07, 0.07, -0.15, -0.15, 0.07,
(PID.TID 0000.0001) >#
(PID.TID 0000.0001) > gud_effective_ksat= T,
(PID.TID 0000.0001) ># a_vmax_NO3(:)= 7*5.902777777777778e-06,  ! 0.51/day
(PID.TID 0000.0001) ># a_qmax_n(:)=   7*0.25,
(PID.TID 0000.0001) ># a_qmin_n(:)=   7*0.07,
(PID.TID 0000.0001) ># a_kn_NO3(:)=   7*0.17,
(PID.TID 0000.0001) ># b_vmax_NO3(:)= 7*-0.27,
(PID.TID 0000.0001) ># b_qmax_n(:)=   7*-0.13,
(PID.TID 0000.0001) ># b_qmin_n(:)=   7*-0.17,
(PID.TID 0000.0001) ># b_kn_NO3(:)=   7*0.27,
(PID.TID 0000.0001) >#
(PID.TID 0000.0001) > grp_ExportFrac(:)= .4, .4, .1, .1, .4, .4, .1, .6,
(PID.TID 0000.0001) > grp_ExportFracGraz(1:7)= .8,
(PID.TID 0000.0001) > grp_R_ChlC(8)= 0.,
(PID.TID 0000.0001) > a_graz(8)= 2.3148148148148147e-05,  ! 2/day
(PID.TID 0000.0001) > b_graz(8)= -.16,
(PID.TID 0000.0001) >#
(PID.TID 0000.0001) > grp_mort(:)= 7*1.6534391534391533e-06, 2.3148148148148148e-07,  ! 1/7days, 1/50days
(PID.TID 0000.0001) > grp_mort2(:)= 7*0., 9.259259259259258e-07,  ! 16*.6/120/day
(PID.TID 0000.0001) > grp_tempcoeff2= 7*.0003,
(PID.TID 0000.0001) > grp_R_PC(:)= 8*0.008333333333333333,
(PID.TID 0000.0001) > grp_R_FeC(:)= 4*0.008333333333333333E-3, 0.03333333333333333E-3, 3*0.008333333333333333E-3,
(PID.TID 0000.0001) > grp_R_NC(:)= 4*0.13333333333333333, 0.3333333333333333, 3*0.13333333333333333,
(PID.TID 0000.0001) > grp_R_SiC(:)= 0.13333333333333333, 7*0.,
(PID.TID 0000.0001) > grp_R_PICPOC(:)= 5*0., .8, 2*0.,
(PID.TID 0000.0001) > a_kg(8)= 6.,
(PID.TID 0000.0001) > b_kg(8)= 0.,
(PID.TID 0000.0001) >
(PID.TID 0000.0001) > grp_ass_eff(:)= 7*0.5,
(PID.TID 0000.0001) > /
(PID.TID 0000.0001) 
(PID.TID 0000.0001)  ===================================
(PID.TID 0000.0001)  OFFLINE_READPARMS: opening data.off
(PID.TID 0000.0001)  OPEN_COPY_DATA_FILE: opening file data.off
(PID.TID 0000.0001) // =======================================================
(PID.TID 0000.0001) // Removing comments from "data.off"
(PID.TID 0000.0001) // =======================================================
(PID.TID 0000.0001)    1  &OFFLINE_PARM01
(PID.TID 0000.0001)    2   UvelFile= '/nobackup1/stephdut/ECCO_Iter3.73daily/DDuvel/DDuvel',
(PID.TID 0000.0001)    3   VvelFile= '/nobackup1/stephdut/ECCO_Iter3.73daily/DDvvel/DDvvel',
(PID.TID 0000.0001)    4   WvelFile= '/nobackup1/stephdut/ECCO_Iter3.73daily/DDwvel/DDwvel',
(PID.TID 0000.0001)    5   GMwxFile= '/nobackup1/stephdut/ECCO_Iter3.73daily/DGMkwx/DGMkwx',
(PID.TID 0000.0001)    6   GMwyFile= '/nobackup1/stephdut/ECCO_Iter3.73daily/DGMkwy/DGMkwy',
(PID.TID 0000.0001)    7   GMwzFile= '/nobackup1/stephdut/ECCO_Iter3.73daily/DGMkwz/DGMkwz',
(PID.TID 0000.0001)    8   SaltFile= '/nobackup1/stephdut/ECCO_Iter3.73daily/DDsalt/DDsalt',
(PID.TID 0000.0001)    9   ThetFile= '/nobackup1/stephdut/ECCO_Iter3.73daily/DDtheta/DDtheta',
(PID.TID 0000.0001)   10   SFluxFile='/nobackup1/stephdut/ECCO_Iter3.73daily/DFOSflux/DFOSflux',
(PID.TID 0000.0001)   11   KPP_DiffSFile='/nobackup1/stephdut/ECCO_Iter3.73daily/DKPPdiffs/DKPPdiffs',
(PID.TID 0000.0001)   12   KPP_ghatKFile='/nobackup1/stephdut/ECCO_Iter3.73daily/DKPPghatK/DKPPghatK',
(PID.TID 0000.0001)   13  &end
(PID.TID 0000.0001)   14
(PID.TID 0000.0001)   15  &OFFLINE_PARM02
(PID.TID 0000.0001)   16   offlineIter0=78912,
(PID.TID 0000.0001)   17   deltaToffline=3600.,
(PID.TID 0000.0001)   18   offlineForcingPeriod=86400.,
(PID.TID 0000.0001)   19   offlineForcingCycle=31104000.,
(PID.TID 0000.0001)   20   offlineLoadPrec=32,
(PID.TID 0000.0001)   21  &end
(PID.TID 0000.0001)   22
(PID.TID 0000.0001) // =======================================================
(PID.TID 0000.0001) // Parameter file "data.off"
(PID.TID 0000.0001) // =======================================================
(PID.TID 0000.0001) > &OFFLINE_PARM01
(PID.TID 0000.0001) >  UvelFile= '/nobackup1/stephdut/ECCO_Iter3.73daily/DDuvel/DDuvel',
(PID.TID 0000.0001) >  VvelFile= '/nobackup1/stephdut/ECCO_Iter3.73daily/DDvvel/DDvvel',
(PID.TID 0000.0001) >  WvelFile= '/nobackup1/stephdut/ECCO_Iter3.73daily/DDwvel/DDwvel',
(PID.TID 0000.0001) >  GMwxFile= '/nobackup1/stephdut/ECCO_Iter3.73daily/DGMkwx/DGMkwx',
(PID.TID 0000.0001) >  GMwyFile= '/nobackup1/stephdut/ECCO_Iter3.73daily/DGMkwy/DGMkwy',
(PID.TID 0000.0001) >  GMwzFile= '/nobackup1/stephdut/ECCO_Iter3.73daily/DGMkwz/DGMkwz',
(PID.TID 0000.0001) ># ConvFile= 'input_off/Convtave',
(PID.TID 0000.0001) >  SaltFile= '/nobackup1/stephdut/ECCO_Iter3.73daily/DDsalt/DDsalt',
(PID.TID 0000.0001) >  ThetFile= '/nobackup1/stephdut/ECCO_Iter3.73daily/DDtheta/DDtheta',
(PID.TID 0000.0001) >  SFluxFile='/nobackup1/stephdut/ECCO_Iter3.73daily/DFOSflux/DFOSflux',
(PID.TID 0000.0001) ># HFluxFile=' ',
(PID.TID 0000.0001) >  KPP_DiffSFile='/nobackup1/stephdut/ECCO_Iter3.73daily/DKPPdiffs/DKPPdiffs',
(PID.TID 0000.0001) >  KPP_ghatKFile='/nobackup1/stephdut/ECCO_Iter3.73daily/DKPPghatK/DKPPghatK',
(PID.TID 0000.0001) >### offGen2DFile='/nobackup1/stephdut/ECCO_Iter3.73daily/SIarea/SIarea',
(PID.TID 0000.0001) > &end
(PID.TID 0000.0001) >
(PID.TID 0000.0001) > &OFFLINE_PARM02
(PID.TID 0000.0001) >  offlineIter0=78912,
(PID.TID 0000.0001) >  deltaToffline=3600.,
(PID.TID 0000.0001) >  offlineForcingPeriod=86400.,
(PID.TID 0000.0001) >  offlineForcingCycle=31104000.,
(PID.TID 0000.0001) >  offlineLoadPrec=32,
(PID.TID 0000.0001) > &end
(PID.TID 0000.0001) >
(PID.TID 0000.0001) 
(PID.TID 0000.0001)  OFFLINE_READPARMS: finished reading data.off
(PID.TID 0000.0001)  DIAGNOSTICS_READPARMS: opening data.diagnostics
(PID.TID 0000.0001)  OPEN_COPY_DATA_FILE: opening file data.diagnostics
(PID.TID 0000.0001) // =======================================================
(PID.TID 0000.0001) // Removing comments from "data.diagnostics"
(PID.TID 0000.0001) // =======================================================
(PID.TID 0000.0001)    1  &diagnostics_list
(PID.TID 0000.0001)    2   frequency(1) = 2592000.,
(PID.TID 0000.0001)    3   fields( 1,1) = 'TRAC01  ',
(PID.TID 0000.0001)    4   fields( 2,1) = 'TRAC02  ',
(PID.TID 0000.0001)    5   fields( 3,1) = 'TRAC03  ',
(PID.TID 0000.0001)    6   fields( 4,1) = 'TRAC04  ',
(PID.TID 0000.0001)    7   fields( 5,1) = 'TRAC05  ',
(PID.TID 0000.0001)    8   fields( 6,1) = 'TRAC06  ',
(PID.TID 0000.0001)    9   fields( 7,1) = 'TRAC07  ',
(PID.TID 0000.0001)   10   fields( 8,1) = 'TRAC08  ',
(PID.TID 0000.0001)   11   fields( 9,1) = 'TRAC09  ',
(PID.TID 0000.0001)   12   fields(10,1) = 'TRAC10  ',
(PID.TID 0000.0001)   13   fields(11,1) = 'TRAC11  ',
(PID.TID 0000.0001)   14   fields(12,1) = 'TRAC12  ',
(PID.TID 0000.0001)   15   fields(13,1) = 'TRAC13  ',
(PID.TID 0000.0001)   16   fields(14,1) = 'TRAC14  ',
(PID.TID 0000.0001)   17   fields(15,1) = 'TRAC15  ',
(PID.TID 0000.0001)   18   fields(16,1) = 'TRAC16  ',
(PID.TID 0000.0001)   19   fields(17,1) = 'TRAC17  ',
(PID.TID 0000.0001)   20   fields(18,1) = 'TRAC18  ',
(PID.TID 0000.0001)   21   fields(19,1) = 'TRAC19  ',
(PID.TID 0000.0001)   22   fields(20,1) = 'TRAC20  ',
(PID.TID 0000.0001)   23   fields(21,1) = 'TRAC21  ',
(PID.TID 0000.0001)   24   fields(22,1) = 'TRAC22  ',
(PID.TID 0000.0001)   25   fields(23,1) = 'TRAC23  ',
(PID.TID 0000.0001)   26   fields(24,1) = 'TRAC24  ',
(PID.TID 0000.0001)   27   fields(25,1) = 'TRAC25  ',
(PID.TID 0000.0001)   28   fields(26,1) = 'TRAC26  ',
(PID.TID 0000.0001)   29   fields(27,1) = 'TRAC27  ',
(PID.TID 0000.0001)   30   fields(28,1) = 'TRAC28  ',
(PID.TID 0000.0001)   31   fields(29,1) = 'TRAC29  ',
(PID.TID 0000.0001)   32   fields(30,1) = 'TRAC30  ',
(PID.TID 0000.0001)   33   fields(31,1) = 'TRAC31  ',
(PID.TID 0000.0001)   34   fields(32,1) = 'TRAC32  ',
(PID.TID 0000.0001)   35   fields(33,1) = 'TRAC33  ',
(PID.TID 0000.0001)   36   fields(34,1) = 'TRAC34  ',
(PID.TID 0000.0001)   37   fields(35,1) = 'TRAC35  ',
(PID.TID 0000.0001)   38   fields(36,1) = 'TRAC36  ',
(PID.TID 0000.0001)   39   fields(37,1) = 'TRAC37  ',
(PID.TID 0000.0001)   40   fields(38,1) = 'TRAC38  ',
(PID.TID 0000.0001)   41   fields(39,1) = 'TRAC39  ',
(PID.TID 0000.0001)   42   fields(40,1) = 'TRAC40  ',
(PID.TID 0000.0001)   43   fields(41,1) = 'TRAC41  ',
(PID.TID 0000.0001)   44   fields(42,1) = 'TRAC42  ',
(PID.TID 0000.0001)   45   fields(43,1) = 'TRAC43  ',
(PID.TID 0000.0001)   46   fields(44,1) = 'TRAC44  ',
(PID.TID 0000.0001)   47   fields(45,1) = 'TRAC45  ',
(PID.TID 0000.0001)   48   fields(46,1) = 'TRAC46  ',
(PID.TID 0000.0001)   49   fields(47,1) = 'TRAC47  ',
(PID.TID 0000.0001)   50   fields(48,1) = 'TRAC48  ',
(PID.TID 0000.0001)   51   fields(49,1) = 'TRAC49  ',
(PID.TID 0000.0001)   52   fields(50,1) = 'TRAC50  ',
(PID.TID 0000.0001)   53   fields(51,1) = 'TRAC51  ',
(PID.TID 0000.0001)   54   fields(52,1) = 'TRAC52  ',
(PID.TID 0000.0001)   55   fields(53,1) = 'TRAC53  ',
(PID.TID 0000.0001)   56   fields(54,1) = 'TRAC54  ',
(PID.TID 0000.0001)   57   fields(55,1) = 'TRAC55  ',
(PID.TID 0000.0001)   58   fields(56,1) = 'TRAC56  ',
(PID.TID 0000.0001)   59   fields(57,1) = 'TRAC57  ',
(PID.TID 0000.0001)   60   fields(58,1) = 'TRAC58  ',
(PID.TID 0000.0001)   61   fields(59,1) = 'TRAC59  ',
(PID.TID 0000.0001)   62   fields(60,1) = 'TRAC60  ',
(PID.TID 0000.0001)   63   fields(61,1) = 'TRAC61  ',
(PID.TID 0000.0001)   64   fields(62,1) = 'TRAC62  ',
(PID.TID 0000.0001)   65   fields(63,1) = 'TRAC63  ',
(PID.TID 0000.0001)   66   fields(64,1) = 'TRAC64  ',
(PID.TID 0000.0001)   67   fields(65,1) = 'TRAC65  ',
(PID.TID 0000.0001)   68   fields(66,1) = 'TRAC66  ',
(PID.TID 0000.0001)   69   fields(67,1) = 'TRAC67  ',
(PID.TID 0000.0001)   70   fields(68,1) = 'TRAC68  ',
(PID.TID 0000.0001)   71   fields(69,1) = 'TRAC69  ',
(PID.TID 0000.0001)   72   fields(70,1) = 'TRAC70  ',
(PID.TID 0000.0001)   73   fields(71,1) = 'TRAC71  ',
(PID.TID 0000.0001)   74   fields(72,1) = 'TRAC72  ',
(PID.TID 0000.0001)   75   fields(73,1) = 'TRAC73  ',
(PID.TID 0000.0001)   76   fields(74,1) = 'TRAC74  ',
(PID.TID 0000.0001)   77   fields(75,1) = 'TRAC75  ',
(PID.TID 0000.0001)   78   fields(76,1) = 'TRAC76  ',
(PID.TID 0000.0001)   79   fields(77,1) = 'TRAC77  ',
(PID.TID 0000.0001)   80   fields(78,1) = 'TRAC78  ',
(PID.TID 0000.0001)   81   fields(79,1) = 'TRAC79  ',
(PID.TID 0000.0001)   82   fields(80,1) = 'TRAC80  ',
(PID.TID 0000.0001)   83   fields(81,1) = 'TRAC81  ',
(PID.TID 0000.0001)   84   fields(82,1) = 'TRAC82  ',
(PID.TID 0000.0001)   85   fields(83,1) = 'TRAC83  ',
(PID.TID 0000.0001)   86   fields(84,1) = 'TRAC84  ',
(PID.TID 0000.0001)   87   fields(85,1) = 'TRAC85  ',
(PID.TID 0000.0001)   88   fields(86,1) = 'TRAC86  ',
(PID.TID 0000.0001)   89   fields(87,1) = 'TRAC87  ',
(PID.TID 0000.0001)   90   fields(88,1) = 'TRAC88  ',
(PID.TID 0000.0001)   91   fields(89,1) = 'TRAC89  ',
(PID.TID 0000.0001)   92   fields(90,1) = 'TRAC90  ',
(PID.TID 0000.0001)   93   fields(91,1) = 'TRAC91  ',
(PID.TID 0000.0001)   94   fields(92,1) = 'TRAC92  ',
(PID.TID 0000.0001)   95   fields(93,1) = 'TRAC93  ',
(PID.TID 0000.0001)   96   fields(94,1) = 'TRAC94  ',
(PID.TID 0000.0001)   97   fields(95,1) = 'TRAC95  ',
(PID.TID 0000.0001)   98   fields(96,1) = 'TRAC96  ',
(PID.TID 0000.0001)   99   fields(97,1) = 'TRAC97  ',
(PID.TID 0000.0001)  100   fields(98,1) = 'TRAC98  ',
(PID.TID 0000.0001)  101   fields(99,1) = 'TRAC99  ',
(PID.TID 0000.0001)  102   fields(100,1) = 'TRAC0a  ',
(PID.TID 0000.0001)  103   fields(101,1) = 'TRAC0b  ',
(PID.TID 0000.0001)  104   fields(102,1) = 'TRAC0c  ',
(PID.TID 0000.0001)  105   fields(103,1) = 'TRAC0d  ',
(PID.TID 0000.0001)  106   fields(104,1) = 'TRAC0e  ',
(PID.TID 0000.0001)  107   fields(105,1) = 'TRAC0f  ',
(PID.TID 0000.0001)  108   fields(106,1) = 'TRAC0g  ',
(PID.TID 0000.0001)  109   fields(107,1) = 'TRAC0h  ',
(PID.TID 0000.0001)  110   fields(108,1) = 'TRAC0i  ',
(PID.TID 0000.0001)  111   fields(109,1) = 'TRAC0j  ',
(PID.TID 0000.0001)  112   fields(110,1) = 'TRAC0k  ',
(PID.TID 0000.0001)  113   fields(111,1) = 'TRAC0l  ',
(PID.TID 0000.0001)  114   fields(112,1) = 'TRAC0m  ',
(PID.TID 0000.0001)  115   fields(113,1) = 'TRAC0n  ',
(PID.TID 0000.0001)  116   fields(114,1) = 'TRAC01  ',
(PID.TID 0000.0001)  117   fields(115,1) = 'TRAC0o  ',
(PID.TID 0000.0001)  118   fields(116,1) = 'TRAC0q  ',
(PID.TID 0000.0001)  119   fields(117,1) = 'TRAC0r  ',
(PID.TID 0000.0001)  120   fields(118,1) = 'TRAC0s  ',
(PID.TID 0000.0001)  121   fields(119,1) = 'TRAC0t  ',
(PID.TID 0000.0001)  122   fields(120,1) = 'TRAC0u  ',
(PID.TID 0000.0001)  123   fields(121,1) = 'TRAC0v  ',
(PID.TID 0000.0001)  124   fields(122,1) = 'TRAC0w  ',
(PID.TID 0000.0001)  125   fields(123,1) = 'TRAC0x  ',
(PID.TID 0000.0001)  126   fields(124,1) = 'TRAC0y  ',
(PID.TID 0000.0001)  127   fields(125,1) = 'TRAC0z  ',
(PID.TID 0000.0001)  128   fields(126,1) = 'TRAC0A  ',
(PID.TID 0000.0001)  129   fields(127,1) = 'TRAC0B  ',
(PID.TID 0000.0001)  130   fields(128,1) = 'TRAC0C  ',
(PID.TID 0000.0001)  131   fields(129,1) = 'TRAC0D  ',
(PID.TID 0000.0001)  132   fields(130,1) = 'TRAC0E  ',
(PID.TID 0000.0001)  133   fields(131,1) = 'TRAC0F  ',
(PID.TID 0000.0001)  134   fields(132,1) = 'TRAC0G  ',
(PID.TID 0000.0001)  135   fields(133,1) = 'TRAC0H  ',
(PID.TID 0000.0001)  136   fields(134,1) = 'TRAC0I  ',
(PID.TID 0000.0001)  137   fields(135,1) = 'TRAC0J  ',
(PID.TID 0000.0001)  138   fields(136,1) = 'TRAC0K  ',
(PID.TID 0000.0001)  139   fields(137,1) = 'TRAC0L  ',
(PID.TID 0000.0001)  140   fields(138,1) = 'TRAC0M  ',
(PID.TID 0000.0001)  141   fields(139,1) = 'TRAC0N  ',
(PID.TID 0000.0001)  142   fields(140,1) = 'TRAC01  ',
(PID.TID 0000.0001)  143   fields(141,1) = 'TRAC0O  ',
(PID.TID 0000.0001)  144   fields(142,1) = 'TRAC0Q  ',
(PID.TID 0000.0001)  145   fields(143,1) = 'TRAC0R  ',
(PID.TID 0000.0001)  146   fields(144,1) = 'TRAC0S  ',
(PID.TID 0000.0001)  147   fields(145,1) = 'TRAC0T  ',
(PID.TID 0000.0001)  148   fields(146,1) = 'TRAC0U  ',
(PID.TID 0000.0001)  149   fields(147,1) = 'TRAC0V  ',
(PID.TID 0000.0001)  150   fields(148,1) = 'TRAC0W  ',
(PID.TID 0000.0001)  151   fields(149,1) = 'TRAC0X  ',
(PID.TID 0000.0001)  152   fields(150,1) = 'TRAC0Y  ',
(PID.TID 0000.0001)  153   fields(151,1) = 'TRAC0Z  ',
(PID.TID 0000.0001)  154   fields(152,1) = 'TRAC1a  ',
(PID.TID 0000.0001)  155   fields(153,1) = 'TRAC1b  ',
(PID.TID 0000.0001)  156   fields(154,1) = 'TRAC1c  ',
(PID.TID 0000.0001)  157   fields(155,1) = 'TRAC1d  ',
(PID.TID 0000.0001)  158   fields(156,1) = 'TRAC1e  ',
(PID.TID 0000.0001)  159   fields(157,1) = 'TRAC1f  ',
(PID.TID 0000.0001)  160   fields(158,1) = 'TRAC1g  ',
(PID.TID 0000.0001)  161   fields(159,1) = 'TRAC1h  ',
(PID.TID 0000.0001)  162   fields(160,1) = 'TRAC1i  ',
(PID.TID 0000.0001)  163   fields(161,1) = 'TRAC1j  ',
(PID.TID 0000.0001)  164   fields(162,1) = 'TRAC1k  ',
(PID.TID 0000.0001)  165   fields(163,1) = 'TRAC1l  ',
(PID.TID 0000.0001)  166   fields(164,1) = 'TRAC1m  ',
(PID.TID 0000.0001)  167   fields(165,1) = 'TRAC1n  ',
(PID.TID 0000.0001)  168   fields(166,1) = 'TRAC11  ',
(PID.TID 0000.0001)  169   fields(167,1) = 'TRAC1o  ',
(PID.TID 0000.0001)  170   fields(168,1) = 'TRAC1q  ',
(PID.TID 0000.0001)  171   fields(169,1) = 'TRAC1r  ',
(PID.TID 0000.0001)  172   fields(170,1) = 'TRAC1s  ',
(PID.TID 0000.0001)  173   fields(171,1) = 'TRAC1t  ',
(PID.TID 0000.0001)  174   fields(172,1) = 'TRAC1u  ',
(PID.TID 0000.0001)  175   fields(173,1) = 'TRAC1v  ',
(PID.TID 0000.0001)  176   fields(174,1) = 'TRAC1w  ',
(PID.TID 0000.0001)  177   fields(175,1) = 'TRAC1x  ',
(PID.TID 0000.0001)  178   fields(176,1) = 'TRAC1y  ',
(PID.TID 0000.0001)  179   fields(177,1) = 'TRAC1z  ',
(PID.TID 0000.0001)  180   fields(178,1) = 'TRAC1A  ',
(PID.TID 0000.0001)  181   fields(179,1) = 'TRAC1B  ',
(PID.TID 0000.0001)  182   fields(180,1) = 'TRAC1C  ',
(PID.TID 0000.0001)  183   fields(181,1) = 'TRAC1D  ',
(PID.TID 0000.0001)  184   fields(182,1) = 'TRAC1E  ',
(PID.TID 0000.0001)  185   fields(183,1) = 'TRAC1F  ',
(PID.TID 0000.0001)  186   fields(184,1) = 'TRAC1G  ',
(PID.TID 0000.0001)  187   fields(185,1) = 'TRAC1H  ',
(PID.TID 0000.0001)  188   fields(186,1) = 'TRAC1I  ',
(PID.TID 0000.0001)  189   fields(187,1) = 'TRAC1J  ',
(PID.TID 0000.0001)  190   fields(188,1) = 'TRAC1K  ',
(PID.TID 0000.0001)  191   fields(189,1) = 'TRAC1L  ',
(PID.TID 0000.0001)  192   fields(190,1) = 'TRAC1M  ',
(PID.TID 0000.0001)  193   fields(191,1) = 'TRAC1N  ',
(PID.TID 0000.0001)  194   fields(192,1) = 'TRAC11  ',
(PID.TID 0000.0001)  195   fields(193,1) = 'TRAC1O  ',
(PID.TID 0000.0001)  196   fields(194,1) = 'TRAC1Q  ',
(PID.TID 0000.0001)  197   fields(195,1) = 'TRAC1R  ',
(PID.TID 0000.0001)  198   fields(196,1) = 'TRAC1S  ',
(PID.TID 0000.0001)  199   fields(197,1) = 'TRAC1T  ',
(PID.TID 0000.0001)  200   fields(198,1) = 'TRAC1U  ',
(PID.TID 0000.0001)  201   fields(199,1) = 'TRAC1V  ',
(PID.TID 0000.0001)  202   fields(200,1) = 'TRAC1W  ',
(PID.TID 0000.0001)  203   fields(201,1) = 'TRAC1X  ',
(PID.TID 0000.0001)  204   fields(202,1) = 'TRAC1Y  ',
(PID.TID 0000.0001)  205   fields(203,1) = 'TRAC1Z  ',
(PID.TID 0000.0001)  206   fields(204,1) = 'TRAC2a  ',
(PID.TID 0000.0001)  207   fields(205,1) = 'TRAC2b  ',
(PID.TID 0000.0001)  208   fields(206,1) = 'TRAC2c  ',
(PID.TID 0000.0001)  209   fields(207,1) = 'TRAC2d  ',
(PID.TID 0000.0001)  210   fields(208,1) = 'TRAC2e  ',
(PID.TID 0000.0001)  211   fields(209,1) = 'TRAC2f  ',
(PID.TID 0000.0001)  212   fields(210,1) = 'TRAC2g  ',
(PID.TID 0000.0001)  213   fields(211,1) = 'TRAC2h  ',
(PID.TID 0000.0001)  214   fields(212,1) = 'TRAC2i  ',
(PID.TID 0000.0001)  215   fields(213,1) = 'TRAC2j  ',
(PID.TID 0000.0001)  216   fields(214,1) = 'TRAC2k  ',
(PID.TID 0000.0001)  217   fields(215,1) = 'TRAC2l  ',
(PID.TID 0000.0001)  218   fields(216,1) = 'TRAC2m  ',
(PID.TID 0000.0001)  219   fields(217,1) = 'TRAC2n  ',
(PID.TID 0000.0001)  220   fields(218,1) = 'TRAC21  ',
(PID.TID 0000.0001)  221   fields(219,1) = 'TRAC2o  ',
(PID.TID 0000.0001)  222   fields(220,1) = 'TRAC2q  ',
(PID.TID 0000.0001)  223   fields(221,1) = 'TRAC2r  ',
(PID.TID 0000.0001)  224   fields(222,1) = 'TRAC2s  ',
(PID.TID 0000.0001)  225   fields(223,1) = 'TRAC2t  ',
(PID.TID 0000.0001)  226   fields(224,1) = 'TRAC2u  ',
(PID.TID 0000.0001)  227   fields(225,1) = 'TRAC2v  ',
(PID.TID 0000.0001)  228   fields(226,1) = 'TRAC2w  ',
(PID.TID 0000.0001)  229   fields(227,1) = 'TRAC2x  ',
(PID.TID 0000.0001)  230   fields(228,1) = 'TRAC2y  ',
(PID.TID 0000.0001)  231   fields(229,1) = 'TRAC2z  ',
(PID.TID 0000.0001)  232   fields(230,1) = 'TRAC2A  ',
(PID.TID 0000.0001)  233   fields(231,1) = 'TRAC2B  ',
(PID.TID 0000.0001)  234   fields(232,1) = 'TRAC2C  ',
(PID.TID 0000.0001)  235   fields(233,1) = 'TRAC2D  ',
(PID.TID 0000.0001)  236   fields(234,1) = 'PAR01   ',
(PID.TID 0000.0001)  237   fields(235,1) = 'PP      ',
(PID.TID 0000.0001)  238   fields(236,1) = 'Nfix    ',
(PID.TID 0000.0001)  239   fields(237,1) = 'Denit   ',
(PID.TID 0000.0001)  240   filename( 1) = 'gud',
(PID.TID 0000.0001)  241  /
(PID.TID 0000.0001)  242
(PID.TID 0000.0001)  243  &DIAG_STATIS_PARMS
(PID.TID 0000.0001)  244  diagst_mnc=.FALSE.,
(PID.TID 0000.0001)  245      stat_freq(1:3)= 3*10800.,
(PID.TID 0000.0001)  246     stat_phase(1:3)= 3*0.,
(PID.TID 0000.0001)  247  stat_fields(1,1)= 'PP      '
(PID.TID 0000.0001)  248  stat_fields(1,2)= 'Nfix    '
(PID.TID 0000.0001)  249  stat_fields(1,3)= 'Denit   '
(PID.TID 0000.0001)  250     stat_fname(1)= 'statsPP',
(PID.TID 0000.0001)  251     stat_fname(2)= 'statsNfix',
(PID.TID 0000.0001)  252     stat_fname(3)= 'statsDenit',
(PID.TID 0000.0001)  253  /
(PID.TID 0000.0001) // =======================================================
(PID.TID 0000.0001) // Parameter file "data.diagnostics"
(PID.TID 0000.0001) // =======================================================
(PID.TID 0000.0001) ># Gud diagnostics
(PID.TID 0000.0001) ># ==================
(PID.TID 0000.0001) ># PAR                 Photosynthetically active radiation
(PID.TID 0000.0001) ># PP                  Primary production
(PID.TID 0000.0001) ># Nfix                Nitrogen fixation
(PID.TID 0000.0001) ># Rstar01             Rstar^PO4 of Phy01
(PID.TID 0000.0001) ># Diver1              # Phy species over absolute threshold'
(PID.TID 0000.0001) ># Diver2              # Phy species over threshold for proportion of biomass'
(PID.TID 0000.0001) ># Diver3              # Phy species constituting bulk of biomass'
(PID.TID 0000.0001) ># Diver4              # Phy species over threshold for ratio to maximum species'
(PID.TID 0000.0001) >#
(PID.TID 0000.0001) > &diagnostics_list
(PID.TID 0000.0001) >#
(PID.TID 0000.0001) >  frequency(1) = 2592000.,
(PID.TID 0000.0001) >  fields( 1,1) = 'TRAC01  ',
(PID.TID 0000.0001) >  fields( 2,1) = 'TRAC02  ',
(PID.TID 0000.0001) >  fields( 3,1) = 'TRAC03  ',
(PID.TID 0000.0001) >  fields( 4,1) = 'TRAC04  ',
(PID.TID 0000.0001) >  fields( 5,1) = 'TRAC05  ',
(PID.TID 0000.0001) >  fields( 6,1) = 'TRAC06  ',
(PID.TID 0000.0001) >  fields( 7,1) = 'TRAC07  ',
(PID.TID 0000.0001) >  fields( 8,1) = 'TRAC08  ',
(PID.TID 0000.0001) >  fields( 9,1) = 'TRAC09  ',
(PID.TID 0000.0001) >  fields(10,1) = 'TRAC10  ',
(PID.TID 0000.0001) >  fields(11,1) = 'TRAC11  ',
(PID.TID 0000.0001) >  fields(12,1) = 'TRAC12  ',
(PID.TID 0000.0001) >  fields(13,1) = 'TRAC13  ',
(PID.TID 0000.0001) >  fields(14,1) = 'TRAC14  ',
(PID.TID 0000.0001) >  fields(15,1) = 'TRAC15  ',
(PID.TID 0000.0001) >  fields(16,1) = 'TRAC16  ',
(PID.TID 0000.0001) >  fields(17,1) = 'TRAC17  ',
(PID.TID 0000.0001) >  fields(18,1) = 'TRAC18  ',
(PID.TID 0000.0001) >  fields(19,1) = 'TRAC19  ',
(PID.TID 0000.0001) >  fields(20,1) = 'TRAC20  ',
(PID.TID 0000.0001) >  fields(21,1) = 'TRAC21  ',
(PID.TID 0000.0001) >  fields(22,1) = 'TRAC22  ',
(PID.TID 0000.0001) >  fields(23,1) = 'TRAC23  ',
(PID.TID 0000.0001) >  fields(24,1) = 'TRAC24  ',
(PID.TID 0000.0001) >  fields(25,1) = 'TRAC25  ',
(PID.TID 0000.0001) >  fields(26,1) = 'TRAC26  ',
(PID.TID 0000.0001) >  fields(27,1) = 'TRAC27  ',
(PID.TID 0000.0001) >  fields(28,1) = 'TRAC28  ',
(PID.TID 0000.0001) >  fields(29,1) = 'TRAC29  ',
(PID.TID 0000.0001) >  fields(30,1) = 'TRAC30  ',
(PID.TID 0000.0001) >  fields(31,1) = 'TRAC31  ',
(PID.TID 0000.0001) >  fields(32,1) = 'TRAC32  ',
(PID.TID 0000.0001) >  fields(33,1) = 'TRAC33  ',
(PID.TID 0000.0001) >  fields(34,1) = 'TRAC34  ',
(PID.TID 0000.0001) >  fields(35,1) = 'TRAC35  ',
(PID.TID 0000.0001) >  fields(36,1) = 'TRAC36  ',
(PID.TID 0000.0001) >  fields(37,1) = 'TRAC37  ',
(PID.TID 0000.0001) >  fields(38,1) = 'TRAC38  ',
(PID.TID 0000.0001) >  fields(39,1) = 'TRAC39  ',
(PID.TID 0000.0001) >  fields(40,1) = 'TRAC40  ',
(PID.TID 0000.0001) >  fields(41,1) = 'TRAC41  ',
(PID.TID 0000.0001) >  fields(42,1) = 'TRAC42  ',
(PID.TID 0000.0001) >  fields(43,1) = 'TRAC43  ',
(PID.TID 0000.0001) >  fields(44,1) = 'TRAC44  ',
(PID.TID 0000.0001) >  fields(45,1) = 'TRAC45  ',
(PID.TID 0000.0001) >  fields(46,1) = 'TRAC46  ',
(PID.TID 0000.0001) >  fields(47,1) = 'TRAC47  ',
(PID.TID 0000.0001) >  fields(48,1) = 'TRAC48  ',
(PID.TID 0000.0001) >  fields(49,1) = 'TRAC49  ',
(PID.TID 0000.0001) >  fields(50,1) = 'TRAC50  ',
(PID.TID 0000.0001) >  fields(51,1) = 'TRAC51  ',
(PID.TID 0000.0001) >  fields(52,1) = 'TRAC52  ',
(PID.TID 0000.0001) >  fields(53,1) = 'TRAC53  ',
(PID.TID 0000.0001) >  fields(54,1) = 'TRAC54  ',
(PID.TID 0000.0001) >  fields(55,1) = 'TRAC55  ',
(PID.TID 0000.0001) >  fields(56,1) = 'TRAC56  ',
(PID.TID 0000.0001) >  fields(57,1) = 'TRAC57  ',
(PID.TID 0000.0001) >  fields(58,1) = 'TRAC58  ',
(PID.TID 0000.0001) >  fields(59,1) = 'TRAC59  ',
(PID.TID 0000.0001) >  fields(60,1) = 'TRAC60  ',
(PID.TID 0000.0001) >  fields(61,1) = 'TRAC61  ',
(PID.TID 0000.0001) >  fields(62,1) = 'TRAC62  ',
(PID.TID 0000.0001) >  fields(63,1) = 'TRAC63  ',
(PID.TID 0000.0001) >  fields(64,1) = 'TRAC64  ',
(PID.TID 0000.0001) >  fields(65,1) = 'TRAC65  ',
(PID.TID 0000.0001) >  fields(66,1) = 'TRAC66  ',
(PID.TID 0000.0001) >  fields(67,1) = 'TRAC67  ',
(PID.TID 0000.0001) >  fields(68,1) = 'TRAC68  ',
(PID.TID 0000.0001) >  fields(69,1) = 'TRAC69  ',
(PID.TID 0000.0001) >  fields(70,1) = 'TRAC70  ',
(PID.TID 0000.0001) >  fields(71,1) = 'TRAC71  ',
(PID.TID 0000.0001) >  fields(72,1) = 'TRAC72  ',
(PID.TID 0000.0001) >  fields(73,1) = 'TRAC73  ',
(PID.TID 0000.0001) >  fields(74,1) = 'TRAC74  ',
(PID.TID 0000.0001) >  fields(75,1) = 'TRAC75  ',
(PID.TID 0000.0001) >  fields(76,1) = 'TRAC76  ',
(PID.TID 0000.0001) >  fields(77,1) = 'TRAC77  ',
(PID.TID 0000.0001) >  fields(78,1) = 'TRAC78  ',
(PID.TID 0000.0001) >  fields(79,1) = 'TRAC79  ',
(PID.TID 0000.0001) >  fields(80,1) = 'TRAC80  ',
(PID.TID 0000.0001) >  fields(81,1) = 'TRAC81  ',
(PID.TID 0000.0001) >  fields(82,1) = 'TRAC82  ',
(PID.TID 0000.0001) >  fields(83,1) = 'TRAC83  ',
(PID.TID 0000.0001) >  fields(84,1) = 'TRAC84  ',
(PID.TID 0000.0001) >  fields(85,1) = 'TRAC85  ',
(PID.TID 0000.0001) >  fields(86,1) = 'TRAC86  ',
(PID.TID 0000.0001) >  fields(87,1) = 'TRAC87  ',
(PID.TID 0000.0001) >  fields(88,1) = 'TRAC88  ',
(PID.TID 0000.0001) >  fields(89,1) = 'TRAC89  ',
(PID.TID 0000.0001) >  fields(90,1) = 'TRAC90  ',
(PID.TID 0000.0001) >  fields(91,1) = 'TRAC91  ',
(PID.TID 0000.0001) >  fields(92,1) = 'TRAC92  ',
(PID.TID 0000.0001) >  fields(93,1) = 'TRAC93  ',
(PID.TID 0000.0001) >  fields(94,1) = 'TRAC94  ',
(PID.TID 0000.0001) >  fields(95,1) = 'TRAC95  ',
(PID.TID 0000.0001) >  fields(96,1) = 'TRAC96  ',
(PID.TID 0000.0001) >  fields(97,1) = 'TRAC97  ',
(PID.TID 0000.0001) >  fields(98,1) = 'TRAC98  ',
(PID.TID 0000.0001) >  fields(99,1) = 'TRAC99  ',
(PID.TID 0000.0001) >  fields(100,1) = 'TRAC0a  ',
(PID.TID 0000.0001) >  fields(101,1) = 'TRAC0b  ',
(PID.TID 0000.0001) >  fields(102,1) = 'TRAC0c  ',
(PID.TID 0000.0001) >  fields(103,1) = 'TRAC0d  ',
(PID.TID 0000.0001) >  fields(104,1) = 'TRAC0e  ',
(PID.TID 0000.0001) >  fields(105,1) = 'TRAC0f  ',
(PID.TID 0000.0001) >  fields(106,1) = 'TRAC0g  ',
(PID.TID 0000.0001) >  fields(107,1) = 'TRAC0h  ',
(PID.TID 0000.0001) >  fields(108,1) = 'TRAC0i  ',
(PID.TID 0000.0001) >  fields(109,1) = 'TRAC0j  ',
(PID.TID 0000.0001) >  fields(110,1) = 'TRAC0k  ',
(PID.TID 0000.0001) >  fields(111,1) = 'TRAC0l  ',
(PID.TID 0000.0001) >  fields(112,1) = 'TRAC0m  ',
(PID.TID 0000.0001) >  fields(113,1) = 'TRAC0n  ',
(PID.TID 0000.0001) >  fields(114,1) = 'TRAC01  ',
(PID.TID 0000.0001) >  fields(115,1) = 'TRAC0o  ',
(PID.TID 0000.0001) >  fields(116,1) = 'TRAC0q  ',
(PID.TID 0000.0001) >  fields(117,1) = 'TRAC0r  ',
(PID.TID 0000.0001) >  fields(118,1) = 'TRAC0s  ',
(PID.TID 0000.0001) >  fields(119,1) = 'TRAC0t  ',
(PID.TID 0000.0001) >  fields(120,1) = 'TRAC0u  ',
(PID.TID 0000.0001) >  fields(121,1) = 'TRAC0v  ',
(PID.TID 0000.0001) >  fields(122,1) = 'TRAC0w  ',
(PID.TID 0000.0001) >  fields(123,1) = 'TRAC0x  ',
(PID.TID 0000.0001) >  fields(124,1) = 'TRAC0y  ',
(PID.TID 0000.0001) >  fields(125,1) = 'TRAC0z  ',
(PID.TID 0000.0001) >  fields(126,1) = 'TRAC0A  ',
(PID.TID 0000.0001) >  fields(127,1) = 'TRAC0B  ',
(PID.TID 0000.0001) >  fields(128,1) = 'TRAC0C  ',
(PID.TID 0000.0001) >  fields(129,1) = 'TRAC0D  ',
(PID.TID 0000.0001) >  fields(130,1) = 'TRAC0E  ',
(PID.TID 0000.0001) >  fields(131,1) = 'TRAC0F  ',
(PID.TID 0000.0001) >  fields(132,1) = 'TRAC0G  ',
(PID.TID 0000.0001) >  fields(133,1) = 'TRAC0H  ',
(PID.TID 0000.0001) >  fields(134,1) = 'TRAC0I  ',
(PID.TID 0000.0001) >  fields(135,1) = 'TRAC0J  ',
(PID.TID 0000.0001) >  fields(136,1) = 'TRAC0K  ',
(PID.TID 0000.0001) >  fields(137,1) = 'TRAC0L  ',
(PID.TID 0000.0001) >  fields(138,1) = 'TRAC0M  ',
(PID.TID 0000.0001) >  fields(139,1) = 'TRAC0N  ',
(PID.TID 0000.0001) >  fields(140,1) = 'TRAC01  ',
(PID.TID 0000.0001) >  fields(141,1) = 'TRAC0O  ',
(PID.TID 0000.0001) >  fields(142,1) = 'TRAC0Q  ',
(PID.TID 0000.0001) >  fields(143,1) = 'TRAC0R  ',
(PID.TID 0000.0001) >  fields(144,1) = 'TRAC0S  ',
(PID.TID 0000.0001) >  fields(145,1) = 'TRAC0T  ',
(PID.TID 0000.0001) >  fields(146,1) = 'TRAC0U  ',
(PID.TID 0000.0001) >  fields(147,1) = 'TRAC0V  ',
(PID.TID 0000.0001) >  fields(148,1) = 'TRAC0W  ',
(PID.TID 0000.0001) >  fields(149,1) = 'TRAC0X  ',
(PID.TID 0000.0001) >  fields(150,1) = 'TRAC0Y  ',
(PID.TID 0000.0001) >  fields(151,1) = 'TRAC0Z  ',
(PID.TID 0000.0001) >  fields(152,1) = 'TRAC1a  ',
(PID.TID 0000.0001) >  fields(153,1) = 'TRAC1b  ',
(PID.TID 0000.0001) >  fields(154,1) = 'TRAC1c  ',
(PID.TID 0000.0001) >  fields(155,1) = 'TRAC1d  ',
(PID.TID 0000.0001) >  fields(156,1) = 'TRAC1e  ',
(PID.TID 0000.0001) >  fields(157,1) = 'TRAC1f  ',
(PID.TID 0000.0001) >  fields(158,1) = 'TRAC1g  ',
(PID.TID 0000.0001) >  fields(159,1) = 'TRAC1h  ',
(PID.TID 0000.0001) >  fields(160,1) = 'TRAC1i  ',
(PID.TID 0000.0001) >  fields(161,1) = 'TRAC1j  ',
(PID.TID 0000.0001) >  fields(162,1) = 'TRAC1k  ',
(PID.TID 0000.0001) >  fields(163,1) = 'TRAC1l  ',
(PID.TID 0000.0001) >  fields(164,1) = 'TRAC1m  ',
(PID.TID 0000.0001) >  fields(165,1) = 'TRAC1n  ',
(PID.TID 0000.0001) >  fields(166,1) = 'TRAC11  ',
(PID.TID 0000.0001) >  fields(167,1) = 'TRAC1o  ',
(PID.TID 0000.0001) >  fields(168,1) = 'TRAC1q  ',
(PID.TID 0000.0001) >  fields(169,1) = 'TRAC1r  ',
(PID.TID 0000.0001) >  fields(170,1) = 'TRAC1s  ',
(PID.TID 0000.0001) >  fields(171,1) = 'TRAC1t  ',
(PID.TID 0000.0001) >  fields(172,1) = 'TRAC1u  ',
(PID.TID 0000.0001) >  fields(173,1) = 'TRAC1v  ',
(PID.TID 0000.0001) >  fields(174,1) = 'TRAC1w  ',
(PID.TID 0000.0001) >  fields(175,1) = 'TRAC1x  ',
(PID.TID 0000.0001) >  fields(176,1) = 'TRAC1y  ',
(PID.TID 0000.0001) >  fields(177,1) = 'TRAC1z  ',
(PID.TID 0000.0001) >  fields(178,1) = 'TRAC1A  ',
(PID.TID 0000.0001) >  fields(179,1) = 'TRAC1B  ',
(PID.TID 0000.0001) >  fields(180,1) = 'TRAC1C  ',
(PID.TID 0000.0001) >  fields(181,1) = 'TRAC1D  ',
(PID.TID 0000.0001) >  fields(182,1) = 'TRAC1E  ',
(PID.TID 0000.0001) >  fields(183,1) = 'TRAC1F  ',
(PID.TID 0000.0001) >  fields(184,1) = 'TRAC1G  ',
(PID.TID 0000.0001) >  fields(185,1) = 'TRAC1H  ',
(PID.TID 0000.0001) >  fields(186,1) = 'TRAC1I  ',
(PID.TID 0000.0001) >  fields(187,1) = 'TRAC1J  ',
(PID.TID 0000.0001) >  fields(188,1) = 'TRAC1K  ',
(PID.TID 0000.0001) >  fields(189,1) = 'TRAC1L  ',
(PID.TID 0000.0001) >  fields(190,1) = 'TRAC1M  ',
(PID.TID 0000.0001) >  fields(191,1) = 'TRAC1N  ',
(PID.TID 0000.0001) >  fields(192,1) = 'TRAC11  ',
(PID.TID 0000.0001) >  fields(193,1) = 'TRAC1O  ',
(PID.TID 0000.0001) >  fields(194,1) = 'TRAC1Q  ',
(PID.TID 0000.0001) >  fields(195,1) = 'TRAC1R  ',
(PID.TID 0000.0001) >  fields(196,1) = 'TRAC1S  ',
(PID.TID 0000.0001) >  fields(197,1) = 'TRAC1T  ',
(PID.TID 0000.0001) >  fields(198,1) = 'TRAC1U  ',
(PID.TID 0000.0001) >  fields(199,1) = 'TRAC1V  ',
(PID.TID 0000.0001) >  fields(200,1) = 'TRAC1W  ',
(PID.TID 0000.0001) >  fields(201,1) = 'TRAC1X  ',
(PID.TID 0000.0001) >  fields(202,1) = 'TRAC1Y  ',
(PID.TID 0000.0001) >  fields(203,1) = 'TRAC1Z  ',
(PID.TID 0000.0001) >  fields(204,1) = 'TRAC2a  ',
(PID.TID 0000.0001) >  fields(205,1) = 'TRAC2b  ',
(PID.TID 0000.0001) >  fields(206,1) = 'TRAC2c  ',
(PID.TID 0000.0001) >  fields(207,1) = 'TRAC2d  ',
(PID.TID 0000.0001) >  fields(208,1) = 'TRAC2e  ',
(PID.TID 0000.0001) >  fields(209,1) = 'TRAC2f  ',
(PID.TID 0000.0001) >  fields(210,1) = 'TRAC2g  ',
(PID.TID 0000.0001) >  fields(211,1) = 'TRAC2h  ',
(PID.TID 0000.0001) >  fields(212,1) = 'TRAC2i  ',
(PID.TID 0000.0001) >  fields(213,1) = 'TRAC2j  ',
(PID.TID 0000.0001) >  fields(214,1) = 'TRAC2k  ',
(PID.TID 0000.0001) >  fields(215,1) = 'TRAC2l  ',
(PID.TID 0000.0001) >  fields(216,1) = 'TRAC2m  ',
(PID.TID 0000.0001) >  fields(217,1) = 'TRAC2n  ',
(PID.TID 0000.0001) >  fields(218,1) = 'TRAC21  ',
(PID.TID 0000.0001) >  fields(219,1) = 'TRAC2o  ',
(PID.TID 0000.0001) >  fields(220,1) = 'TRAC2q  ',
(PID.TID 0000.0001) >  fields(221,1) = 'TRAC2r  ',
(PID.TID 0000.0001) >  fields(222,1) = 'TRAC2s  ',
(PID.TID 0000.0001) >  fields(223,1) = 'TRAC2t  ',
(PID.TID 0000.0001) >  fields(224,1) = 'TRAC2u  ',
(PID.TID 0000.0001) >  fields(225,1) = 'TRAC2v  ',
(PID.TID 0000.0001) >  fields(226,1) = 'TRAC2w  ',
(PID.TID 0000.0001) >  fields(227,1) = 'TRAC2x  ',
(PID.TID 0000.0001) >  fields(228,1) = 'TRAC2y  ',
(PID.TID 0000.0001) >  fields(229,1) = 'TRAC2z  ',
(PID.TID 0000.0001) >  fields(230,1) = 'TRAC2A  ',
(PID.TID 0000.0001) >  fields(231,1) = 'TRAC2B  ',
(PID.TID 0000.0001) >  fields(232,1) = 'TRAC2C  ',
(PID.TID 0000.0001) >  fields(233,1) = 'TRAC2D  ',
(PID.TID 0000.0001) >  fields(234,1) = 'PAR01   ',
(PID.TID 0000.0001) >  fields(235,1) = 'PP      ',
(PID.TID 0000.0001) >  fields(236,1) = 'Nfix    ',
(PID.TID 0000.0001) >  fields(237,1) = 'Denit   ',
(PID.TID 0000.0001) >  filename( 1) = 'gud',
(PID.TID 0000.0001) >#
(PID.TID 0000.0001) > /
(PID.TID 0000.0001) >
(PID.TID 0000.0001) ># Parameter for Diagnostics of per level statistics:
(PID.TID 0000.0001) >#-----------------
(PID.TID 0000.0001) ># for each output-stream:
(PID.TID 0000.0001) >#  stat_fname(n) : prefix of the output file name (only 8.c long) for
(PID.TID 0000.0001) >#outp.stream n
(PID.TID 0000.0001) >#  stat_freq(n):< 0 : write snap-shot output every |stat_freq| seconds
(PID.TID 0000.0001) >#               > 0 : write time-average output every stat_freq seconds
(PID.TID 0000.0001) >#  stat_phase(n)    : write at time = stat_phase + multiple of |stat_freq|
(PID.TID 0000.0001) >#  stat_region(:,n) : list of "regions" (default: 1 region only=global)
(PID.TID 0000.0001) >#  stat_fields(:,n) : list of diagnostics fields (8.c) (see
(PID.TID 0000.0001) >#"available_diagnostics.log"
(PID.TID 0000.0001) >#                 file for the list of all available diag. in this particular
(PID.TID 0000.0001) >#config)
(PID.TID 0000.0001) >#-----------------
(PID.TID 0000.0001) > &DIAG_STATIS_PARMS
(PID.TID 0000.0001) > diagst_mnc=.FALSE.,
(PID.TID 0000.0001) >     stat_freq(1:3)= 3*10800.,
(PID.TID 0000.0001) >    stat_phase(1:3)= 3*0.,
(PID.TID 0000.0001) > stat_fields(1,1)= 'PP      '
(PID.TID 0000.0001) > stat_fields(1,2)= 'Nfix    '
(PID.TID 0000.0001) > stat_fields(1,3)= 'Denit   '
(PID.TID 0000.0001) >    stat_fname(1)= 'statsPP',
(PID.TID 0000.0001) >    stat_fname(2)= 'statsNfix',
(PID.TID 0000.0001) >    stat_fname(3)= 'statsDenit',
(PID.TID 0000.0001) > /
(PID.TID 0000.0001) 
(PID.TID 0000.0001) S/R DIAGNOSTICS_READPARMS, read namelist "diagnostics_list": start
(PID.TID 0000.0001) S/R DIAGNOSTICS_READPARMS, read namelist "diagnostics_list": OK
(PID.TID 0000.0001) S/R DIAGNOSTICS_READPARMS, read namelist "DIAG_STATIS_PARMS": start
(PID.TID 0000.0001) S/R DIAGNOSTICS_READPARMS, read namelist "DIAG_STATIS_PARMS": OK
(PID.TID 0000.0001)  DIAGNOSTICS_READPARMS: global parameter summary:
(PID.TID 0000.0001)  dumpAtLast = /* always write time-ave diags at the end */
(PID.TID 0000.0001)                   F
(PID.TID 0000.0001)     ;
(PID.TID 0000.0001)  diag_mnc =   /* write NetCDF output files */
(PID.TID 0000.0001)                   T
(PID.TID 0000.0001)     ;
(PID.TID 0000.0001)  useMissingValue = /* put MissingValue where mask = 0 */
(PID.TID 0000.0001)                   F
(PID.TID 0000.0001)     ;
(PID.TID 0000.0001)  diagCG_maxIters = /* max number of iters in diag_cg2d */
(PID.TID 0000.0001)                     300
(PID.TID 0000.0001)     ;
(PID.TID 0000.0001)  diagCG_resTarget = /* residual target for diag_cg2d */
(PID.TID 0000.0001)                 1.000000000000000E-07
(PID.TID 0000.0001)     ;
(PID.TID 0000.0001) -----------------------------------------------------
(PID.TID 0000.0001)  DIAGNOSTICS_READPARMS: active diagnostics summary:
(PID.TID 0000.0001) -----------------------------------------------------
(PID.TID 0000.0001) Creating Output Stream: gud
(PID.TID 0000.0001) Output Frequency:    2592000.000000 ; Phase:           0.000000
(PID.TID 0000.0001)  Averaging Freq.:    2592000.000000 , Phase:           0.000000 , Cycle:   1
(PID.TID 0000.0001)  missing value: -9.990000000000E+02
(PID.TID 0000.0001)  Levels:    will be set later
(PID.TID 0000.0001)  Fields:    TRAC01   TRAC02   TRAC03   TRAC04   TRAC05   TRAC06   TRAC07   TRAC08   TRAC09   TRAC10
(PID.TID 0000.0001)  Fields:    TRAC11   TRAC12   TRAC13   TRAC14   TRAC15   TRAC16   TRAC17   TRAC18   TRAC19   TRAC20
(PID.TID 0000.0001)  Fields:    TRAC21   TRAC22   TRAC23   TRAC24   TRAC25   TRAC26   TRAC27   TRAC28   TRAC29   TRAC30
(PID.TID 0000.0001)  Fields:    TRAC31   TRAC32   TRAC33   TRAC34   TRAC35   TRAC36   TRAC37   TRAC38   TRAC39   TRAC40
(PID.TID 0000.0001)  Fields:    TRAC41   TRAC42   TRAC43   TRAC44   TRAC45   TRAC46   TRAC47   TRAC48   TRAC49   TRAC50
(PID.TID 0000.0001)  Fields:    TRAC51   TRAC52   TRAC53   TRAC54   TRAC55   TRAC56   TRAC57   TRAC58   TRAC59   TRAC60
(PID.TID 0000.0001)  Fields:    TRAC61   TRAC62   TRAC63   TRAC64   TRAC65   TRAC66   TRAC67   TRAC68   TRAC69   TRAC70
(PID.TID 0000.0001)  Fields:    TRAC71   TRAC72   TRAC73   TRAC74   TRAC75   TRAC76   TRAC77   TRAC78   TRAC79   TRAC80
(PID.TID 0000.0001)  Fields:    TRAC81   TRAC82   TRAC83   TRAC84   TRAC85   TRAC86   TRAC87   TRAC88   TRAC89   TRAC90
(PID.TID 0000.0001)  Fields:    TRAC91   TRAC92   TRAC93   TRAC94   TRAC95   TRAC96   TRAC97   TRAC98   TRAC99   TRAC0a
(PID.TID 0000.0001)  Fields:    TRAC0b   TRAC0c   TRAC0d   TRAC0e   TRAC0f   TRAC0g   TRAC0h   TRAC0i   TRAC0j   TRAC0k
(PID.TID 0000.0001)  Fields:    TRAC0l   TRAC0m   TRAC0n   TRAC01   TRAC0o   TRAC0q   TRAC0r   TRAC0s   TRAC0t   TRAC0u
(PID.TID 0000.0001)  Fields:    TRAC0v   TRAC0w   TRAC0x   TRAC0y   TRAC0z   TRAC0A   TRAC0B   TRAC0C   TRAC0D   TRAC0E
(PID.TID 0000.0001)  Fields:    TRAC0F   TRAC0G   TRAC0H   TRAC0I   TRAC0J   TRAC0K   TRAC0L   TRAC0M   TRAC0N   TRAC01
(PID.TID 0000.0001)  Fields:    TRAC0O   TRAC0Q   TRAC0R   TRAC0S   TRAC0T   TRAC0U   TRAC0V   TRAC0W   TRAC0X   TRAC0Y
(PID.TID 0000.0001)  Fields:    TRAC0Z   TRAC1a   TRAC1b   TRAC1c   TRAC1d   TRAC1e   TRAC1f   TRAC1g   TRAC1h   TRAC1i
(PID.TID 0000.0001)  Fields:    TRAC1j   TRAC1k   TRAC1l   TRAC1m   TRAC1n   TRAC11   TRAC1o   TRAC1q   TRAC1r   TRAC1s
(PID.TID 0000.0001)  Fields:    TRAC1t   TRAC1u   TRAC1v   TRAC1w   TRAC1x   TRAC1y   TRAC1z   TRAC1A   TRAC1B   TRAC1C
(PID.TID 0000.0001)  Fields:    TRAC1D   TRAC1E   TRAC1F   TRAC1G   TRAC1H   TRAC1I   TRAC1J   TRAC1K   TRAC1L   TRAC1M
(PID.TID 0000.0001)  Fields:    TRAC1N   TRAC11   TRAC1O   TRAC1Q   TRAC1R   TRAC1S   TRAC1T   TRAC1U   TRAC1V   TRAC1W
(PID.TID 0000.0001)  Fields:    TRAC1X   TRAC1Y   TRAC1Z   TRAC2a   TRAC2b   TRAC2c   TRAC2d   TRAC2e   TRAC2f   TRAC2g
(PID.TID 0000.0001)  Fields:    TRAC2h   TRAC2i   TRAC2j   TRAC2k   TRAC2l   TRAC2m   TRAC2n   TRAC21   TRAC2o   TRAC2q
(PID.TID 0000.0001)  Fields:    TRAC2r   TRAC2s   TRAC2t   TRAC2u   TRAC2v   TRAC2w   TRAC2x   TRAC2y   TRAC2z   TRAC2A
(PID.TID 0000.0001)  Fields:    TRAC2B   TRAC2C   TRAC2D   PAR01    PP       Nfix     Denit
(PID.TID 0000.0001) -----------------------------------------------------
(PID.TID 0000.0001)  DIAGNOSTICS_READPARMS: statistics diags. summary:
(PID.TID 0000.0001) Creating Stats. Output Stream: statsPP
(PID.TID 0000.0001) Output Frequency:      10800.000000 ; Phase:           0.000000
(PID.TID 0000.0001)  Regions:   0
(PID.TID 0000.0001)  Fields:    PP
(PID.TID 0000.0001) Creating Stats. Output Stream: statsNfix
(PID.TID 0000.0001) Output Frequency:      10800.000000 ; Phase:           0.000000
(PID.TID 0000.0001)  Regions:   0
(PID.TID 0000.0001)  Fields:    Nfix
(PID.TID 0000.0001) Creating Stats. Output Stream: statsDenit
(PID.TID 0000.0001) Output Frequency:      10800.000000 ; Phase:           0.000000
(PID.TID 0000.0001)  Regions:   0
(PID.TID 0000.0001)  Fields:    Denit
(PID.TID 0000.0001) -----------------------------------------------------
(PID.TID 0000.0001) 
(PID.TID 0000.0001)  OFFLINE_RESET_PARMS: => turn off Temp,Salt & Mom_Stepping flags
(PID.TID 0000.0001) SET_PARMS: done
(PID.TID 0000.0001) Enter INI_VERTICAL_GRID: setInterFDr=    T ; setCenterDr=    F
(PID.TID 0000.0001) %MON XC_max                       =   3.5950000000000000E+02
(PID.TID 0000.0001) %MON XC_min                       =   5.0000000000000000E-01
(PID.TID 0000.0001) %MON XC_mean                      =   1.8000000000000000E+02
(PID.TID 0000.0001) %MON XC_sd                        =   1.0392264751567228E+02
(PID.TID 0000.0001) %MON XG_max                       =   3.5900000000000000E+02
(PID.TID 0000.0001) %MON XG_min                       =   0.0000000000000000E+00
(PID.TID 0000.0001) %MON XG_mean                      =   1.7950000000000000E+02
(PID.TID 0000.0001) %MON XG_sd                        =   1.0392264751567228E+02
(PID.TID 0000.0001) %MON DXC_max                      =   1.1117324005452037E+05
(PID.TID 0000.0001) %MON DXC_min                      =   2.0260485279198008E+04
(PID.TID 0000.0001) %MON DXC_mean                     =   7.8416312620424709E+04
(PID.TID 0000.0001) %MON DXC_sd                       =   2.8072575688352925E+04
(PID.TID 0000.0001) %MON DXF_max                      =   1.1117324005452037E+05
(PID.TID 0000.0001) %MON DXF_min                      =   2.0260485279198008E+04
(PID.TID 0000.0001) %MON DXF_mean                     =   7.8416312620424709E+04
(PID.TID 0000.0001) %MON DXF_sd                       =   2.8072575688352925E+04
(PID.TID 0000.0001) %MON DXG_max                      =   1.1117747335203880E+05
(PID.TID 0000.0001) %MON DXG_min                      =   1.9305765645195253E+04
(PID.TID 0000.0001) %MON DXG_mean                     =   7.8413326767520935E+04
(PID.TID 0000.0001) %MON DXG_sd                       =   2.8078861897602375E+04
(PID.TID 0000.0001) %MON DXV_max                      =   1.1117747335203880E+05
(PID.TID 0000.0001) %MON DXV_min                      =   1.9305765645195253E+04
(PID.TID 0000.0001) %MON DXV_mean                     =   7.8413326767520935E+04
(PID.TID 0000.0001) %MON DXV_sd                       =   2.8078861897602375E+04
(PID.TID 0000.0001) %MON YC_max                       =   7.9500000000000000E+01
(PID.TID 0000.0001) %MON YC_min                       =  -7.9500000000000000E+01
(PID.TID 0000.0001) %MON YC_mean                      =   0.0000000000000000E+00
(PID.TID 0000.0001) %MON YC_sd                        =   4.6187119416564613E+01
(PID.TID 0000.0001) %MON YG_max                       =   7.9000000000000000E+01
(PID.TID 0000.0001) %MON YG_min                       =  -8.0000000000000000E+01
(PID.TID 0000.0001) %MON YG_mean                      =  -5.0000000000000000E-01
(PID.TID 0000.0001) %MON YG_sd                        =   4.6187119416564613E+01
(PID.TID 0000.0001) %MON DYC_max                      =   1.1117747335203880E+05
(PID.TID 0000.0001) %MON DYC_min                      =   1.1117747335203880E+05
(PID.TID 0000.0001) %MON DYC_mean                     =   1.1117747335204249E+05
(PID.TID 0000.0001) %MON DYC_sd                       =   3.6961864680051804E-09
(PID.TID 0000.0001) %MON DYF_max                      =   1.1117747335203880E+05
(PID.TID 0000.0001) %MON DYF_min                      =   1.1117747335203880E+05
(PID.TID 0000.0001) %MON DYF_mean                     =   1.1117747335204249E+05
(PID.TID 0000.0001) %MON DYF_sd                       =   3.6961864680051804E-09
(PID.TID 0000.0001) %MON DYG_max                      =   1.1117747335203880E+05
(PID.TID 0000.0001) %MON DYG_min                      =   1.1117747335203880E+05
(PID.TID 0000.0001) %MON DYG_mean                     =   1.1117747335204249E+05
(PID.TID 0000.0001) %MON DYG_sd                       =   3.6961864680051804E-09
(PID.TID 0000.0001) %MON DYU_max                      =   1.1117747335203880E+05
(PID.TID 0000.0001) %MON DYU_min                      =   1.1117747335203880E+05
(PID.TID 0000.0001) %MON DYU_mean                     =   1.1117747335204249E+05
(PID.TID 0000.0001) %MON DYU_sd                       =   3.6961864680051804E-09
(PID.TID 0000.0001) %MON RA_max                       =   1.2359803056755941E+10
(PID.TID 0000.0001) %MON RA_min                       =   2.2524809726007752E+09
(PID.TID 0000.0001) %MON RA_mean                      =   8.7180168532477016E+09
(PID.TID 0000.0001) %MON RA_sd                        =   3.1209984222260637E+09
(PID.TID 0000.0001) %MON RAW_max                      =   1.2359803056755941E+10
(PID.TID 0000.0001) %MON RAW_min                      =   2.2524809726007752E+09
(PID.TID 0000.0001) %MON RAW_mean                     =   8.7180168532477016E+09
(PID.TID 0000.0001) %MON RAW_sd                       =   3.1209984222260637E+09
(PID.TID 0000.0001) %MON RAS_max                      =   1.2360273698104368E+10
(PID.TID 0000.0001) %MON RAS_min                      =   2.1463390031403122E+09
(PID.TID 0000.0001) %MON RAS_mean                     =   8.7176848978793430E+09
(PID.TID 0000.0001) %MON RAS_sd                       =   3.1216972982168884E+09
(PID.TID 0000.0001) %MON RAZ_max                      =   1.2360273698104368E+10
(PID.TID 0000.0001) %MON RAZ_min                      =   2.1463390031403122E+09
(PID.TID 0000.0001) %MON RAZ_mean                     =   8.7176848978793430E+09
(PID.TID 0000.0001) %MON RAZ_sd                       =   3.1216972982168884E+09
(PID.TID 0000.0001) %MON AngleCS_max                  =   1.0000000000000000E+00
(PID.TID 0000.0001) %MON AngleCS_min                  =   1.0000000000000000E+00
(PID.TID 0000.0001) %MON AngleCS_mean                 =   1.0000000000000000E+00
(PID.TID 0000.0001) %MON AngleCS_sd                   =   0.0000000000000000E+00
(PID.TID 0000.0001) %MON AngleSN_max                  =   0.0000000000000000E+00
(PID.TID 0000.0001) %MON AngleSN_min                  =   0.0000000000000000E+00
(PID.TID 0000.0001) %MON AngleSN_mean                 =   0.0000000000000000E+00
(PID.TID 0000.0001) %MON AngleSN_sd                   =   0.0000000000000000E+00
(PID.TID 0000.0001)  MDS_READ_FIELD: opening global file: ../../../input/eccov3_R8/bathy_fl.bin
(PID.TID 0000.0001) // =======================================================
(PID.TID 0000.0001) // Field Model R_low (ini_masks_etc)
(PID.TID 0000.0001) // CMIN =         -5.700000000000000E+03
(PID.TID 0000.0001) // CMAX =         -3.500000000000000E+01
(PID.TID 0000.0001) // CINT =          2.098148148148148E+02
(PID.TID 0000.0001) // SYMBOLS (CMIN->CMAX): -abcdefghijklmnopqrstuvwxyz+
(PID.TID 0000.0001) //                  0.0: .
(PID.TID 0000.0001) // RANGE I (Lo:Hi:Step):(    -3:    49:     1)
(PID.TID 0000.0001) // RANGE J (Lo:Hi:Step):(    44:    -3:    -1)
(PID.TID 0000.0001) // RANGE K (Lo:Hi:Step):(   1:   1:   1)
(PID.TID 0000.0001) // =======================================================
(PID.TID 0000.0001) K =   1
(PID.TID 0000.0001) //                I=6       I=16      I=26      I=36      I=46
(PID.TID 0000.0001) // |--J--|321012345|789012345|789012345|789012345|789012345|789
(PID.TID 0000.0001) //     44 geebbbbbbbbebbbbbeeeegjnzzqgegjgeeeggjjb-bbbeeejnljjj
(PID.TID 0000.0001) //     43 ggebbbbbbbebbbbbbbeeeeeeggbbelllgggggjgbbbbeeggnljlln
(PID.TID 0000.0001) //     42 eeebbbbbbbbbbbbbbeeeeeeebbbbglnlgggggjebbbbeggjnlllqq
(PID.TID 0000.0001) //     41 eeebbbbbbbbbbbebeeeeeeeebbbbjnnlgggjggbbbbeejjnnlnnnl
(PID.TID 0000.0001) //     40 ggeeeeeebbbbbeeeeeqeeebbbbbelnnnjgeegebeeggjjnqnnnlll
(PID.TID 0000.0001) //     39 ggjlnjeeeeeeeeeeggeebbbbbbbglnllgebbbbeegjjlnqqnlllll
(PID.TID 0000.0001) //     38 ggjnljjeeeeeegjgeeeebbbbbbegggeeebbbbeeggjlnnqlllllll
(PID.TID 0000.0001) //     37 ggjgggggeegjgggeeeeeeeeebeeebbbbbbbbeeggllnqqqnnnnnnn
(PID.TID 0000.0001) //     36 jjgggeegjgggeeeeeeeeeeeegeebbbb---beegjlqqqqqqqqssqnn
(PID.TID 0000.0001) //     35 jjjgggeeggggeeeeeeeeeeegeeebbb---bbegjnnqqqqqssssssqn
(PID.TID 0000.0001) //     34 gggjggeeegjnjeeeeeeeee-beeebbb--bbegjnlllnnnllqnnqqnl
(PID.TID 0000.0001) //     33 jggjgggeeggqljgeeeeeeebbebeebbbbbbggnljjjjggjjjjjjllj
(PID.TID 0000.0001) //     32 jjjjjjggjjjljjggggeegeeeeeeeebbbbegjjgjgggggggggggggg
(PID.TID 0000.0001) //     31 llljjjjjjjlnggjjgggeggggggggeeeeeggjgeeeeeggggggggggg
(PID.TID 0000.0001) //     30 nnnnlllnlljjggjjjljjjjjjggggeegeggeebebbeggjjjjggggge
(PID.TID 0000.0001) //     29 nnnnqnlnjjjjgjjlnlllllljjjjggggjgeebbbeeegglllnnljjge
(PID.TID 0000.0001) //     28 qqqnnnnlljjjjllnllnllnnnllllljjjeeb-bbbeegglnqnqnlljg
(PID.TID 0000.0001) //     27 qqqnnnnnnnnnlljljjggjjlllllllegeebbbbbbeegjnnnllsnllq
(PID.TID 0000.0001) //     26 nnqqqnqsqnnlljjggeeeggjjjjjjggeebb-bbbbeegjllljjgggee
(PID.TID 0000.0001) //     25 lllljjllllljgegebbbbeeeggjjjebeb---bbbbbbegjgggeeeeeb
(PID.TID 0000.0001) //     24 ljjjjggjggeeebbbbbbbbbeegejjebbbbbb-bbbbbbbbbeeeebbbb
(PID.TID 0000.0001) //     23 jjjgggggeeeebbb----bbbbeeebebbbbbbb-bbbbbbbbbbbbbbbbb
(PID.TID 0000.0001) //     22 eeeggeebbbbbebbb--bbbbbbbbbbbbbbbbbbbbbbbbbbbbbbbbbbb
(PID.TID 0000.0001) //     21 bbbbbbbbbbbbbbbbbbbbbbbbbbbbbbbbbbbbbbbbbbbbbbbbbbbbb
(PID.TID 0000.0001) //     20 bbbbbbbbbbbbbbbbbbbbbbbbbbbbbbbbbbbbbbbbbbbbbbbbbbbbb
(PID.TID 0000.0001) //     19 bbbbbbbbbbbbbbbebbbbbbbbbbbbbbbbbbbbbbbbbbbbbbbbbbbbb
(PID.TID 0000.0001) //     18 bbbbbbbbbbbbbbbbbbbbbbbbbbbbbbbbbbbbbbbbbbbbbbbbeeeeb
(PID.TID 0000.0001) //     17 bbbbbbeeeeebbbbbbbbbbbbbbbbbbbbbbbbbbbbbbbbeeeeeeegge
(PID.TID 0000.0001) //     16 bbbbgnqnnjeeebbeeeeeebbbbbbbbbbbbbbeegeeeeeeeggggjjlj
(PID.TID 0000.0001) //     15 eebglnnljggggggjllljgeeeeeeeeeeeeeegjnngeeeeeggjjllnq
(PID.TID 0000.0001) //     14 eeeejgjjgggggjjllljggeeeeeeeeeeegggglulggeeggglnnqsxy
(PID.TID 0000.0001) //     13 ggeeeegjggggjlnqlljgggggggggggjjjjjnvvnlljjlnnuyyy...
(PID.TID 0000.0001) //     12 jggggggjllllllnsqnllljjjjjjjjjjjlnsyz..yxxyyy........
(PID.TID 0000.0001) //     11 nlnqsqqqqqsssquzzyxyxvssssnlnnquvx++......++.........
(PID.TID 0000.0001) //     10 z+zyz+..z++...++..........yy.........................
(PID.TID 0000.0001) //      9 .....................................................
(PID.TID 0000.0001) //      8 .....................................................
(PID.TID 0000.0001) //      7 .....................................................
(PID.TID 0000.0001) //      6 .....................................................
(PID.TID 0000.0001) //      5 .....................................................
(PID.TID 0000.0001) //      4 .....................................................
(PID.TID 0000.0001) //      3 .....................................................
(PID.TID 0000.0001) //      2 .....................................................
(PID.TID 0000.0001) //      1 .....................................................
(PID.TID 0000.0001) //      0 sqnnnlllnquvyz+......................................
(PID.TID 0000.0001) //     -1 snnnnnnnqqqquyz......................................
(PID.TID 0000.0001) //     -2 qnllllllnnqqnsxzzz...................................
(PID.TID 0000.0001) //     -3 ljlllllllnqnnqqsuxz+.................................
(PID.TID 0000.0001) // =======================================================
(PID.TID 0000.0001) // END OF FIELD                                          =
(PID.TID 0000.0001) // =======================================================
(PID.TID 0000.0001) 
(PID.TID 0000.0001) // =======================================================
(PID.TID 0000.0001) // Field Model Ro_surf (ini_masks_etc)
(PID.TID 0000.0001) // CMIN =          1.000000000000000E+32
(PID.TID 0000.0001) // CMAX =         -1.000000000000000E+32
(PID.TID 0000.0001) // CINT =          0.000000000000000E+00
(PID.TID 0000.0001) // SYMBOLS (CMIN->CMAX): -abcdefghijklmnopqrstuvwxyz+
(PID.TID 0000.0001) //                  0.0: .
(PID.TID 0000.0001) // RANGE I (Lo:Hi:Step):(    -3:    49:     1)
(PID.TID 0000.0001) // RANGE J (Lo:Hi:Step):(    44:    -3:    -1)
(PID.TID 0000.0001) // RANGE K (Lo:Hi:Step):(   1:   1:   1)
(PID.TID 0000.0001) // =======================================================
(PID.TID 0000.0001) // =======================================================
(PID.TID 0000.0001) // END OF FIELD                                          =
(PID.TID 0000.0001) // =======================================================
(PID.TID 0000.0001) 
(PID.TID 0000.0001) // =======================================================
(PID.TID 0000.0001) // Field hFacC at iteration          0
(PID.TID 0000.0001) // CMIN =          1.000000000000000E+00
(PID.TID 0000.0001) // CMAX =          1.000000000000000E+00
(PID.TID 0000.0001) // CINT =          0.000000000000000E+00
(PID.TID 0000.0001) // SYMBOLS (CMIN->CMAX): -abcdefghijklmnopqrstuvwxyz+
(PID.TID 0000.0001) //                  0.0: .
(PID.TID 0000.0001) // RANGE I (Lo:Hi:Step):(    -3:    49:     1)
(PID.TID 0000.0001) // RANGE J (Lo:Hi:Step):(    44:    -3:    -1)
(PID.TID 0000.0001) // RANGE K (Lo:Hi:Step):(   1:   1:   1)
(PID.TID 0000.0001) // =======================================================
(PID.TID 0000.0001) // =======================================================
(PID.TID 0000.0001) // END OF FIELD                                          =
(PID.TID 0000.0001) // =======================================================
(PID.TID 0000.0001) 
(PID.TID 0000.0001) // =======================================================
(PID.TID 0000.0001) // Field hFacW at iteration          0
(PID.TID 0000.0001) // CMIN =          1.000000000000000E+00
(PID.TID 0000.0001) // CMAX =          1.000000000000000E+00
(PID.TID 0000.0001) // CINT =          0.000000000000000E+00
(PID.TID 0000.0001) // SYMBOLS (CMIN->CMAX): -abcdefghijklmnopqrstuvwxyz+
(PID.TID 0000.0001) //                  0.0: .
(PID.TID 0000.0001) // RANGE I (Lo:Hi:Step):(    -3:    49:     1)
(PID.TID 0000.0001) // RANGE J (Lo:Hi:Step):(    44:    -3:    -1)
(PID.TID 0000.0001) // RANGE K (Lo:Hi:Step):(   1:   1:   1)
(PID.TID 0000.0001) // =======================================================
(PID.TID 0000.0001) // =======================================================
(PID.TID 0000.0001) // END OF FIELD                                          =
(PID.TID 0000.0001) // =======================================================
(PID.TID 0000.0001) 
(PID.TID 0000.0001) // =======================================================
(PID.TID 0000.0001) // Field hFacS at iteration          0
(PID.TID 0000.0001) // CMIN =          1.000000000000000E+00
(PID.TID 0000.0001) // CMAX =          1.000000000000000E+00
(PID.TID 0000.0001) // CINT =          0.000000000000000E+00
(PID.TID 0000.0001) // SYMBOLS (CMIN->CMAX): -abcdefghijklmnopqrstuvwxyz+
(PID.TID 0000.0001) //                  0.0: .
(PID.TID 0000.0001) // RANGE I (Lo:Hi:Step):(    -3:    49:     1)
(PID.TID 0000.0001) // RANGE J (Lo:Hi:Step):(    44:    -3:    -1)
(PID.TID 0000.0001) // RANGE K (Lo:Hi:Step):(   1:   1:   1)
(PID.TID 0000.0001) // =======================================================
(PID.TID 0000.0001) // =======================================================
(PID.TID 0000.0001) // END OF FIELD                                          =
(PID.TID 0000.0001) // =======================================================
(PID.TID 0000.0001) 
(PID.TID 0000.0001) 
(PID.TID 0000.0001) // =======================================================
(PID.TID 0000.0001) // Calendar configuration >>> START <<<
(PID.TID 0000.0001) // =======================================================
(PID.TID 0000.0001) 
(PID.TID 0000.0001) modelstart = /* Start time of the model integration [s] */
(PID.TID 0000.0001)                 0.000000000000000E+00
(PID.TID 0000.0001)     ;
(PID.TID 0000.0001) modelend  = /* End time of the model integration [s] */
(PID.TID 0000.0001)                 4.320000000000000E+04
(PID.TID 0000.0001)     ;
(PID.TID 0000.0001) modelstep = /* Time interval for a model forward step [s] */
(PID.TID 0000.0001)                 1.080000000000000E+04
(PID.TID 0000.0001)     ;
(PID.TID 0000.0001) usingGregorianCalendar= /* Calendar Type: Gregorian Calendar */
(PID.TID 0000.0001)                   F
(PID.TID 0000.0001)     ;
(PID.TID 0000.0001) usingJulianCalendar = /* Calendar Type: Julian Calendar */
(PID.TID 0000.0001)                   F
(PID.TID 0000.0001)     ;
(PID.TID 0000.0001) usingModelCalendar  = /* Calendar Type: Model Calendar */
(PID.TID 0000.0001)                   T
(PID.TID 0000.0001)     ;
(PID.TID 0000.0001) modelstartdate YYYYMMDD = /* Model start date YYYY-MM-DD */
(PID.TID 0000.0001)                20000101
(PID.TID 0000.0001)     ;
(PID.TID 0000.0001)   modelstartdate HHMMSS = /* Model start date HH-MM-SS  */
(PID.TID 0000.0001)                       0
(PID.TID 0000.0001)     ;
(PID.TID 0000.0001) modelenddate   YYYYMMDD = /* Model end date YYYY-MM-DD */
(PID.TID 0000.0001)                20000101
(PID.TID 0000.0001)     ;
(PID.TID 0000.0001)   modelenddate   HHMMSS = /* Model end date HH-MM-SS  */
(PID.TID 0000.0001)                  120000
(PID.TID 0000.0001)     ;
(PID.TID 0000.0001) intyears = /* Number of calendar years affected by the integration */
(PID.TID 0000.0001)                       1
(PID.TID 0000.0001)     ;
(PID.TID 0000.0001) intmonths= /* Number of calendar months affected by the integration */
(PID.TID 0000.0001)                       1
(PID.TID 0000.0001)     ;
(PID.TID 0000.0001) intdays = /* Number of calendar days affected by the integration */
(PID.TID 0000.0001)                       1
(PID.TID 0000.0001)     ;
(PID.TID 0000.0001) modeliter0 = /* Base timestep number  */
(PID.TID 0000.0001)                       0
(PID.TID 0000.0001)     ;
(PID.TID 0000.0001) modeliterend = /* Final timestep number  */
(PID.TID 0000.0001)                       4
(PID.TID 0000.0001)     ;
(PID.TID 0000.0001) modelintsteps= /* Number of model timesteps  */
(PID.TID 0000.0001)                       4
(PID.TID 0000.0001)     ;
(PID.TID 0000.0001) 
(PID.TID 0000.0001) // =======================================================
(PID.TID 0000.0001) // Calendar configuration  >>> END <<<
(PID.TID 0000.0001) // =======================================================
(PID.TID 0000.0001) 
(PID.TID 0000.0001) GAD_INIT_FIXED: GAD_OlMinSize=  0  0  1
(PID.TID 0000.0001) 
(PID.TID 0000.0001) // ===================================
(PID.TID 0000.0001) // GAD parameters :
(PID.TID 0000.0001) // ===================================
(PID.TID 0000.0001) tempAdvScheme =   /* Temp. Horiz.Advection scheme selector */
(PID.TID 0000.0001)                       3
(PID.TID 0000.0001)     ;
(PID.TID 0000.0001) tempVertAdvScheme =   /* Temp. Vert. Advection scheme selector */
(PID.TID 0000.0001)                       3
(PID.TID 0000.0001)     ;
(PID.TID 0000.0001) tempMultiDimAdvec =   /* use Muti-Dim Advec method for Temp */
(PID.TID 0000.0001)                   F
(PID.TID 0000.0001)     ;
(PID.TID 0000.0001) tempSOM_Advection = /* use 2nd Order Moment Advection for Temp */
(PID.TID 0000.0001)                   F
(PID.TID 0000.0001)     ;
(PID.TID 0000.0001) AdamsBashforthGt = /* apply Adams-Bashforth extrapolation on Gt */
(PID.TID 0000.0001)                   F
(PID.TID 0000.0001)     ;
(PID.TID 0000.0001) AdamsBashforth_T = /* apply Adams-Bashforth extrapolation on Temp */
(PID.TID 0000.0001)                   F
(PID.TID 0000.0001)     ;
(PID.TID 0000.0001) saltAdvScheme =   /* Salt. Horiz.advection scheme selector */
(PID.TID 0000.0001)                       3
(PID.TID 0000.0001)     ;
(PID.TID 0000.0001) saltVertAdvScheme =   /* Salt. Vert. Advection scheme selector */
(PID.TID 0000.0001)                       3
(PID.TID 0000.0001)     ;
(PID.TID 0000.0001) saltMultiDimAdvec =   /* use Muti-Dim Advec method for Salt */
(PID.TID 0000.0001)                   F
(PID.TID 0000.0001)     ;
(PID.TID 0000.0001) saltSOM_Advection = /* use 2nd Order Moment Advection for Salt */
(PID.TID 0000.0001)                   F
(PID.TID 0000.0001)     ;
(PID.TID 0000.0001) AdamsBashforthGs = /* apply Adams-Bashforth extrapolation on Gs */
(PID.TID 0000.0001)                   F
(PID.TID 0000.0001)     ;
(PID.TID 0000.0001) AdamsBashforth_S = /* apply Adams-Bashforth extrapolation on Salt */
(PID.TID 0000.0001)                   F
(PID.TID 0000.0001)     ;
(PID.TID 0000.0001) SmolarkiewiczMaxFrac = /* maximal fraction of tracer to flow out of a cell */
(PID.TID 0000.0001)                 1.000000000000000E+00
(PID.TID 0000.0001)     ;
(PID.TID 0000.0001) // ===================================
(PID.TID 0000.0001) 
(PID.TID 0000.0001) // =======================================================
(PID.TID 0000.0001) // External forcing (EXF) configuration >>> START <<<
(PID.TID 0000.0001) // =======================================================
(PID.TID 0000.0001) 
(PID.TID 0000.0001)  EXF general parameters:
(PID.TID 0000.0001) 
(PID.TID 0000.0001) exf_iprec = /* exf file precision */
(PID.TID 0000.0001)                      32
(PID.TID 0000.0001)     ;
(PID.TID 0000.0001) useExfYearlyFields = /* add extension _YEAR to input file names */
(PID.TID 0000.0001)                   F
(PID.TID 0000.0001)     ;
(PID.TID 0000.0001) twoDigitYear = /* use 2-digit year extension */
(PID.TID 0000.0001)                   F
(PID.TID 0000.0001)     ;
(PID.TID 0000.0001) exf_verbose = /* print more messages to STDOUT */
(PID.TID 0000.0001)                   F
(PID.TID 0000.0001)     ;
(PID.TID 0000.0001) useExfCheckRange = /* check for fields range */
(PID.TID 0000.0001)                   F
(PID.TID 0000.0001)     ;
(PID.TID 0000.0001) exf_monFreq = /* EXF monitor frequency [ s ] */
(PID.TID 0000.0001)                 1.000000000000000E+00
(PID.TID 0000.0001)     ;
(PID.TID 0000.0001) repeatPeriod = /* period for cycling forcing dataset [ s ] */
(PID.TID 0000.0001)                 3.110400000000000E+07
(PID.TID 0000.0001)     ;
(PID.TID 0000.0001) climTempFreeze= /* Minimum climatological temperature [deg.C] */
(PID.TID 0000.0001)                -1.900000000000000E+00
(PID.TID 0000.0001)     ;
(PID.TID 0000.0001) windStressMax = /* Maximum absolute windstress [ Pa ] */
(PID.TID 0000.0001)                 2.000000000000000E+00
(PID.TID 0000.0001)     ;
(PID.TID 0000.0001) stressIsOnCgrid = /* set u,v_stress on Arakawa C-grid */
(PID.TID 0000.0001)                   F
(PID.TID 0000.0001)     ;
(PID.TID 0000.0001) cen2kel = /* conversion of deg. Centigrade to Kelvin [K] */
(PID.TID 0000.0001)                 2.731500000000000E+02
(PID.TID 0000.0001)     ;
(PID.TID 0000.0001) gravity_mks= /* gravitational acceleration [m/s^2] */
(PID.TID 0000.0001)                 9.810000000000000E+00
(PID.TID 0000.0001)     ;
(PID.TID 0000.0001) atmrho =  /* mean atmospheric density [kg/m^3] */
(PID.TID 0000.0001)                 1.200000000000000E+00
(PID.TID 0000.0001)     ;
(PID.TID 0000.0001) atmcp =  /* mean atmospheric specific heat [J/kg/K] */
(PID.TID 0000.0001)                 1.005000000000000E+03
(PID.TID 0000.0001)     ;
(PID.TID 0000.0001) flamb =  /* latent heat of evaporation [J/kg] */
(PID.TID 0000.0001)                 2.500000000000000E+06
(PID.TID 0000.0001)     ;
(PID.TID 0000.0001) flami =  /* latent heat of pure-ice melting [J/kg] */
(PID.TID 0000.0001)                 3.340000000000000E+05
(PID.TID 0000.0001)     ;
(PID.TID 0000.0001) cvapor_fac = /* const. for Saturation calculation [?] */
(PID.TID 0000.0001)                 6.403800000000000E+05
(PID.TID 0000.0001)     ;
(PID.TID 0000.0001) cvapor_exp = /* const. for Saturation calculation [?] */
(PID.TID 0000.0001)                 5.107400000000000E+03
(PID.TID 0000.0001)     ;
(PID.TID 0000.0001) cvapor_fac_ice= /* const. for Saturation calculation [?] */
(PID.TID 0000.0001)                 1.163780000000000E+07
(PID.TID 0000.0001)     ;
(PID.TID 0000.0001) cvapor_exp_ice= /* const. for Saturation calculation [?] */
(PID.TID 0000.0001)                 5.897800000000000E+03
(PID.TID 0000.0001)     ;
(PID.TID 0000.0001) humid_fac = /* humidity coef. in virtual temp. [(kg/kg)^-1] */
(PID.TID 0000.0001)                 6.060000000000000E-01
(PID.TID 0000.0001)     ;
(PID.TID 0000.0001) gamma_blk = /* adiabatic lapse rate [?] */
(PID.TID 0000.0001)                 1.000000000000000E-02
(PID.TID 0000.0001)     ;
(PID.TID 0000.0001) saltsat = /* reduction of Qsat over salty water [-] */
(PID.TID 0000.0001)                 9.800000000000000E-01
(PID.TID 0000.0001)     ;
(PID.TID 0000.0001) noNegativeEvap = /* prevent negative Evaporation */
(PID.TID 0000.0001)                   F
(PID.TID 0000.0001)     ;
(PID.TID 0000.0001) sstExtrapol = /* extrapolation coeff from lev. 1 & 2 to surf [-] */
(PID.TID 0000.0001)                 0.000000000000000E+00
(PID.TID 0000.0001)     ;
(PID.TID 0000.0001) cDrag_1 = /* coef used in drag calculation [?] */
(PID.TID 0000.0001)                 2.700000000000000E-03
(PID.TID 0000.0001)     ;
(PID.TID 0000.0001) cDrag_2 = /* coef used in drag calculation [?] */
(PID.TID 0000.0001)                 1.420000000000000E-04
(PID.TID 0000.0001)     ;
(PID.TID 0000.0001) cDrag_3 = /* coef used in drag calculation [?] */
(PID.TID 0000.0001)                 7.640000000000000E-05
(PID.TID 0000.0001)     ;
(PID.TID 0000.0001) cStanton_1 = /* coef used in Stanton number calculation [?] */
(PID.TID 0000.0001)                 3.270000000000000E-02
(PID.TID 0000.0001)     ;
(PID.TID 0000.0001) cStanton_2 = /* coef used in Stanton number calculation [?] */
(PID.TID 0000.0001)                 1.800000000000000E-02
(PID.TID 0000.0001)     ;
(PID.TID 0000.0001) cDalton = /* coef used in Dalton number calculation [?] */
(PID.TID 0000.0001)                 3.460000000000000E-02
(PID.TID 0000.0001)     ;
(PID.TID 0000.0001) exf_scal_BulkCdn= /* Drag coefficient scaling factor [-] */
(PID.TID 0000.0001)                 1.000000000000000E+00
(PID.TID 0000.0001)     ;
(PID.TID 0000.0001) zolmin = /* minimum stability parameter [?] */
(PID.TID 0000.0001)                -1.000000000000000E+02
(PID.TID 0000.0001)     ;
(PID.TID 0000.0001) psim_fac = /* coef used in turbulent fluxes calculation [-] */
(PID.TID 0000.0001)                 5.000000000000000E+00
(PID.TID 0000.0001)     ;
(PID.TID 0000.0001) zref =  /* reference height [ m ] */
(PID.TID 0000.0001)                 1.000000000000000E+01
(PID.TID 0000.0001)     ;
(PID.TID 0000.0001) hu =  /* height of mean wind [ m ] */
(PID.TID 0000.0001)                 1.000000000000000E+01
(PID.TID 0000.0001)     ;
(PID.TID 0000.0001) ht =  /* height of mean temperature [ m ] */
(PID.TID 0000.0001)                 2.000000000000000E+00
(PID.TID 0000.0001)     ;
(PID.TID 0000.0001) hq =  /* height of mean spec.humidity [ m ] */
(PID.TID 0000.0001)                 2.000000000000000E+00
(PID.TID 0000.0001)     ;
(PID.TID 0000.0001) uMin = /* minimum wind speed [m/s] */
(PID.TID 0000.0001)                 5.000000000000000E-01
(PID.TID 0000.0001)     ;
(PID.TID 0000.0001) useStabilityFct_overIce= /* transfert Coeffs over sea-ice depend on stability */
(PID.TID 0000.0001)                   F
(PID.TID 0000.0001)     ;
(PID.TID 0000.0001) exf_iceCd = /* drag coefficient over sea-ice (fixed) [-] */
(PID.TID 0000.0001)                 1.630000000000000E-03
(PID.TID 0000.0001)     ;
(PID.TID 0000.0001) exf_iceCe = /* transfert coeff. over sea-ice, for Evap (fixed) [-] */
(PID.TID 0000.0001)                 1.630000000000000E-03
(PID.TID 0000.0001)     ;
(PID.TID 0000.0001) exf_iceCh = /* transfert coeff. over sea-ice, Sens.Heat.(fixed)[-] */
(PID.TID 0000.0001)                 1.630000000000000E-03
(PID.TID 0000.0001)     ;
(PID.TID 0000.0001) exf_albedo =  /* Sea-water albedo [-] */
(PID.TID 0000.0001)                 1.000000000000000E-01
(PID.TID 0000.0001)     ;
(PID.TID 0000.0001) useExfZenAlbedo = /* Sea-water albedo varies with zenith angle */
(PID.TID 0000.0001)                   F
(PID.TID 0000.0001)     ;
(PID.TID 0000.0001) select_ZenAlbedo = /* Sea-water albedo computation method */
(PID.TID 0000.0001)                       0
(PID.TID 0000.0001)     ;
(PID.TID 0000.0001) useExfZenIncoming = /* compute incoming solar radiation */
(PID.TID 0000.0001)                   F
(PID.TID 0000.0001)     ;
(PID.TID 0000.0001) ocean_emissivity = /* longwave ocean-surface emissivity [-] */
(PID.TID 0000.0001)                 9.700176366843034E-01
(PID.TID 0000.0001)     ;
(PID.TID 0000.0001) ice_emissivity = /* longwave seaice emissivity [-] */
(PID.TID 0000.0001)                 9.500000000000000E-01
(PID.TID 0000.0001)     ;
(PID.TID 0000.0001) snow_emissivity = /* longwave snow  emissivity [-] */
(PID.TID 0000.0001)                 9.500000000000000E-01
(PID.TID 0000.0001)     ;
(PID.TID 0000.0001) 
(PID.TID 0000.0001)  EXF main CPP flags:
(PID.TID 0000.0001) 
(PID.TID 0000.0001) // USE_EXF_INTERPOLATION:          NOT defined
(PID.TID 0000.0001) // ALLOW_ATM_TEMP:                     defined
(PID.TID 0000.0001) // ALLOW_ATM_WIND (useAtmWind):        defined
(PID.TID 0000.0001) // ALLOW_DOWNWARD_RADIATION:           defined
(PID.TID 0000.0001) // ALLOW_BULKFORMULAE:                 defined
(PID.TID 0000.0001) 
(PID.TID 0000.0001)    Net shortwave flux forcing starts at                0.
(PID.TID 0000.0001)    Net shortwave flux forcing period is                0.
(PID.TID 0000.0001)    Net shortwave flux forcing is read from file:
(PID.TID 0000.0001)    >>    <<
(PID.TID 0000.0001) 
(PID.TID 0000.0001)    Zonal wind forcing starts at                          0.
(PID.TID 0000.0001)    Zonal wind forcing period is                          0.
(PID.TID 0000.0001)    Zonal wind forcing is read from file:
(PID.TID 0000.0001)    >>    <<
(PID.TID 0000.0001) 
(PID.TID 0000.0001)    Meridional wind forcing starts at                     0.
(PID.TID 0000.0001)    Meridional wind forcing period is                     0.
(PID.TID 0000.0001)    Meridional wind forcing is read from file:
(PID.TID 0000.0001)    >>    <<
(PID.TID 0000.0001) 
(PID.TID 0000.0001)    Atmospheric temperature starts at                     0.
(PID.TID 0000.0001)    Atmospheric temperature period is                     0.
(PID.TID 0000.0001)    Atmospheric temperature is read from file:
(PID.TID 0000.0001)    >>    <<
(PID.TID 0000.0001) 
(PID.TID 0000.0001)    Atmospheric specific humidity starts at               0.
(PID.TID 0000.0001)    Atmospheric specific humidity period is               0.
(PID.TID 0000.0001)    Atmospheric specific humidity is read from file:
(PID.TID 0000.0001)    >>    <<
(PID.TID 0000.0001) 
(PID.TID 0000.0001)    Net longwave flux forcing starts at                 0.
(PID.TID 0000.0001)    Net longwave flux forcing period is                 0.
(PID.TID 0000.0001)    Net longwave flux forcing is read from file:
(PID.TID 0000.0001)    >>    <<
(PID.TID 0000.0001) 
(PID.TID 0000.0001)    Precipitation data set starts at                      0.
(PID.TID 0000.0001)    Precipitation data period is                          0.
(PID.TID 0000.0001)    Precipitation data is read from file:
(PID.TID 0000.0001)    >>    <<
(PID.TID 0000.0001) 
(PID.TID 0000.0001) // EXF_READ_EVAP:                  NOT defined
(PID.TID 0000.0001) 
(PID.TID 0000.0001) // ALLOW_RUNOFF:                       defined
(PID.TID 0000.0001)    Runoff starts at               0.
(PID.TID 0000.0001)    Runoff period is               0.
(PID.TID 0000.0001)    Runoff is read from file:
(PID.TID 0000.0001)    >>    <<
(PID.TID 0000.0001) // ALLOW_RUNOFTEMP:                NOT defined
(PID.TID 0000.0001) 
(PID.TID 0000.0001)    Downward shortwave flux forcing starts at                0.
(PID.TID 0000.0001)    Downward shortwave flux forcing period is                0.
(PID.TID 0000.0001)    Downward shortwave flux forcing is read from file:
(PID.TID 0000.0001)    >>    <<
(PID.TID 0000.0001) 
(PID.TID 0000.0001)    Downward longwave flux forcing starts at                 0.
(PID.TID 0000.0001)    Downward longwave flux forcing period is                 0.
(PID.TID 0000.0001)    Downward longwave flux forcing is read from file:
(PID.TID 0000.0001)    >>    <<
(PID.TID 0000.0001) 
(PID.TID 0000.0001)    Atmospheric pressure forcing starts at                0.
(PID.TID 0000.0001)    Atmospheric pressure forcing period is                0.
(PID.TID 0000.0001)    Atmospheric pressureforcing is read from file:
(PID.TID 0000.0001)    >>    <<
(PID.TID 0000.0001) 
(PID.TID 0000.0001)    fractional ice-covered area MASK starts at                0.
(PID.TID 0000.0001)    fractional ice-covered area MASK period is                0.
(PID.TID 0000.0001)    fractional ice-covered area MASK is read from file:
(PID.TID 0000.0001)    >>    <<
(PID.TID 0000.0001) 
(PID.TID 0000.0001) // =======================================================
(PID.TID 0000.0001) // External forcing (EXF) climatology configuration :
(PID.TID 0000.0001) // =======================================================
(PID.TID 0000.0001) 
(PID.TID 0000.0001) // ALLOW_CLIMSST_RELAXATION:       NOT defined
(PID.TID 0000.0001) // ALLOW_CLIMSSS_RELAXATION:       NOT defined
(PID.TID 0000.0001) 
(PID.TID 0000.0001) // =======================================================
(PID.TID 0000.0001) // External forcing (EXF) configuration  >>> END <<<
(PID.TID 0000.0001) // =======================================================
(PID.TID 0000.0001) 
(PID.TID 0000.0001) GUD_RANDOM_INIT: port_rand               56   0.3052905000000000
(PID.TID 0000.0001)  GUD_INIT_FIXED: opening data.traits
(PID.TID 0000.0001)  OPEN_COPY_DATA_FILE: opening file data.traits
(PID.TID 0000.0001) // =======================================================
(PID.TID 0000.0001) // Removing comments from "data.traits"
(PID.TID 0000.0001) // =======================================================
(PID.TID 0000.0001)    1  &GUD_TRAITS
(PID.TID 0000.0001)    2  EXPORTFRAC(25:26)= 2*.2,
(PID.TID 0000.0001)    3
(PID.TID 0000.0001)    4  PALAT=  1444*0.0 ,
(PID.TID 0000.0001)    5  PALAT(  1,25)=  1.0000000000000000e+00,
(PID.TID 0000.0001)    6  PALAT(  2,26)=  1.0000000000000000e+00,
(PID.TID 0000.0001)    7  PALAT(  3,27)=  1.0000000000000000e+00,
(PID.TID 0000.0001)    8  PALAT(  4,28)=  1.0000000000000000e+00,
(PID.TID 0000.0001)    9  PALAT(  5,29)=  1.0000000000000000e+00,
(PID.TID 0000.0001)   10  PALAT(  6,29)=  1.0000000000000000e+00,
(PID.TID 0000.0001)   11  PALAT(  7,30)=  1.0000000000000000e+00,
(PID.TID 0000.0001)   12  PALAT(  8,30)=  1.0000000000000000e+00,
(PID.TID 0000.0001)   13  PALAT(  9,30)=  1.0000000000000000e+00,
(PID.TID 0000.0001)   14  PALAT( 10,31)=  1.0000000000000000e+00,
(PID.TID 0000.0001)   15  PALAT( 11,31)=  1.0000000000000000e+00,
(PID.TID 0000.0001)   16  PALAT( 12,31)=  1.0000000000000000e+00,
(PID.TID 0000.0001)   17  PALAT( 13,32)=  1.0000000000000000e+00,
(PID.TID 0000.0001)   18  PALAT( 14,32)=  1.0000000000000000e+00,
(PID.TID 0000.0001)   19  PALAT( 15,32)=  1.0000000000000000e+00,
(PID.TID 0000.0001)   20  PALAT( 16,33)=  1.0000000000000000e+00,
(PID.TID 0000.0001)   21  PALAT( 17,33)=  1.0000000000000000e+00,
(PID.TID 0000.0001)   22  PALAT( 18,33)=  1.0000000000000000e+00,
(PID.TID 0000.0001)   23  PALAT( 19,34)=  1.0000000000000000e+00,
(PID.TID 0000.0001)   24  PALAT( 20,34)=  1.0000000000000000e+00,
(PID.TID 0000.0001)   25  PALAT( 21,35)=  1.0000000000000000e+00,
(PID.TID 0000.0001)   26  PALAT( 22,36)=  1.0000000000000000e+00,
(PID.TID 0000.0001)   27  PALAT( 23,37)=  1.0000000000000000e+00,
(PID.TID 0000.0001)   28  PALAT( 24,38)=  1.0000000000000000e+00,
(PID.TID 0000.0001)   29  /
(PID.TID 0000.0001) // =======================================================
(PID.TID 0000.0001) // Parameter file "data.traits"
(PID.TID 0000.0001) // =======================================================
(PID.TID 0000.0001) > &GUD_TRAITS
(PID.TID 0000.0001) > EXPORTFRAC(25:26)= 2*.2,
(PID.TID 0000.0001) >
(PID.TID 0000.0001) > PALAT=  1444*0.0 ,
(PID.TID 0000.0001) > PALAT(  1,25)=  1.0000000000000000e+00,
(PID.TID 0000.0001) > PALAT(  2,26)=  1.0000000000000000e+00,
(PID.TID 0000.0001) > PALAT(  3,27)=  1.0000000000000000e+00,
(PID.TID 0000.0001) > PALAT(  4,28)=  1.0000000000000000e+00,
(PID.TID 0000.0001) > PALAT(  5,29)=  1.0000000000000000e+00,
(PID.TID 0000.0001) > PALAT(  6,29)=  1.0000000000000000e+00,
(PID.TID 0000.0001) > PALAT(  7,30)=  1.0000000000000000e+00,
(PID.TID 0000.0001) > PALAT(  8,30)=  1.0000000000000000e+00,
(PID.TID 0000.0001) > PALAT(  9,30)=  1.0000000000000000e+00,
(PID.TID 0000.0001) > PALAT( 10,31)=  1.0000000000000000e+00,
(PID.TID 0000.0001) > PALAT( 11,31)=  1.0000000000000000e+00,
(PID.TID 0000.0001) > PALAT( 12,31)=  1.0000000000000000e+00,
(PID.TID 0000.0001) > PALAT( 13,32)=  1.0000000000000000e+00,
(PID.TID 0000.0001) > PALAT( 14,32)=  1.0000000000000000e+00,
(PID.TID 0000.0001) > PALAT( 15,32)=  1.0000000000000000e+00,
(PID.TID 0000.0001) > PALAT( 16,33)=  1.0000000000000000e+00,
(PID.TID 0000.0001) > PALAT( 17,33)=  1.0000000000000000e+00,
(PID.TID 0000.0001) > PALAT( 18,33)=  1.0000000000000000e+00,
(PID.TID 0000.0001) > PALAT( 19,34)=  1.0000000000000000e+00,
(PID.TID 0000.0001) > PALAT( 20,34)=  1.0000000000000000e+00,
(PID.TID 0000.0001) > PALAT( 21,35)=  1.0000000000000000e+00,
(PID.TID 0000.0001) > PALAT( 22,36)=  1.0000000000000000e+00,
(PID.TID 0000.0001) > PALAT( 23,37)=  1.0000000000000000e+00,
(PID.TID 0000.0001) > PALAT( 24,38)=  1.0000000000000000e+00,
(PID.TID 0000.0001) > /
(PID.TID 0000.0001) 
(PID.TID 0000.0001)  ===================================
(PID.TID 0000.0001) ------------------------------------------------------------
(PID.TID 0000.0001) DIAGNOSTICS_SET_LEVELS: done
(PID.TID 0000.0001)  Total Nb of available Diagnostics: ndiagt=  3455
(PID.TID 0000.0001)  write list of available Diagnostics to file: available_diagnostics.log
(PID.TID 0000.0001) SETDIAG: Allocate 23 x  1 Levels for Diagnostic #   179 TRAC01
(PID.TID 0000.0001) SETDIAG: Allocate 23 x  1 Levels for Diagnostic #   192 TRAC02
(PID.TID 0000.0001) SETDIAG: Allocate 23 x  1 Levels for Diagnostic #   205 TRAC03
(PID.TID 0000.0001) SETDIAG: Allocate 23 x  1 Levels for Diagnostic #   218 TRAC04
(PID.TID 0000.0001) SETDIAG: Allocate 23 x  1 Levels for Diagnostic #   231 TRAC05
(PID.TID 0000.0001) SETDIAG: Allocate 23 x  1 Levels for Diagnostic #   244 TRAC06
(PID.TID 0000.0001) SETDIAG: Allocate 23 x  1 Levels for Diagnostic #   257 TRAC07
(PID.TID 0000.0001) SETDIAG: Allocate 23 x  1 Levels for Diagnostic #   270 TRAC08
(PID.TID 0000.0001) SETDIAG: Allocate 23 x  1 Levels for Diagnostic #   283 TRAC09
(PID.TID 0000.0001) SETDIAG: Allocate 23 x  1 Levels for Diagnostic #   296 TRAC10
(PID.TID 0000.0001) SETDIAG: Allocate 23 x  1 Levels for Diagnostic #   309 TRAC11
(PID.TID 0000.0001) SETDIAG: Allocate 23 x  1 Levels for Diagnostic #   322 TRAC12
(PID.TID 0000.0001) SETDIAG: Allocate 23 x  1 Levels for Diagnostic #   335 TRAC13
(PID.TID 0000.0001) SETDIAG: Allocate 23 x  1 Levels for Diagnostic #   348 TRAC14
(PID.TID 0000.0001) SETDIAG: Allocate 23 x  1 Levels for Diagnostic #   361 TRAC15
(PID.TID 0000.0001) SETDIAG: Allocate 23 x  1 Levels for Diagnostic #   374 TRAC16
(PID.TID 0000.0001) SETDIAG: Allocate 23 x  1 Levels for Diagnostic #   387 TRAC17
(PID.TID 0000.0001) SETDIAG: Allocate 23 x  1 Levels for Diagnostic #   400 TRAC18
(PID.TID 0000.0001) SETDIAG: Allocate 23 x  1 Levels for Diagnostic #   413 TRAC19
(PID.TID 0000.0001) SETDIAG: Allocate 23 x  1 Levels for Diagnostic #   426 TRAC20
(PID.TID 0000.0001) SETDIAG: Allocate 23 x  1 Levels for Diagnostic #   439 TRAC21
(PID.TID 0000.0001) SETDIAG: Allocate 23 x  1 Levels for Diagnostic #   452 TRAC22
(PID.TID 0000.0001) SETDIAG: Allocate 23 x  1 Levels for Diagnostic #   465 TRAC23
(PID.TID 0000.0001) SETDIAG: Allocate 23 x  1 Levels for Diagnostic #   478 TRAC24
(PID.TID 0000.0001) SETDIAG: Allocate 23 x  1 Levels for Diagnostic #   491 TRAC25
(PID.TID 0000.0001) SETDIAG: Allocate 23 x  1 Levels for Diagnostic #   504 TRAC26
(PID.TID 0000.0001) SETDIAG: Allocate 23 x  1 Levels for Diagnostic #   517 TRAC27
(PID.TID 0000.0001) SETDIAG: Allocate 23 x  1 Levels for Diagnostic #   530 TRAC28
(PID.TID 0000.0001) SETDIAG: Allocate 23 x  1 Levels for Diagnostic #   543 TRAC29
(PID.TID 0000.0001) SETDIAG: Allocate 23 x  1 Levels for Diagnostic #   556 TRAC30
(PID.TID 0000.0001) SETDIAG: Allocate 23 x  1 Levels for Diagnostic #   569 TRAC31
(PID.TID 0000.0001) SETDIAG: Allocate 23 x  1 Levels for Diagnostic #   582 TRAC32
(PID.TID 0000.0001) SETDIAG: Allocate 23 x  1 Levels for Diagnostic #   595 TRAC33
(PID.TID 0000.0001) SETDIAG: Allocate 23 x  1 Levels for Diagnostic #   608 TRAC34
(PID.TID 0000.0001) SETDIAG: Allocate 23 x  1 Levels for Diagnostic #   621 TRAC35
(PID.TID 0000.0001) SETDIAG: Allocate 23 x  1 Levels for Diagnostic #   634 TRAC36
(PID.TID 0000.0001) SETDIAG: Allocate 23 x  1 Levels for Diagnostic #   647 TRAC37
(PID.TID 0000.0001) SETDIAG: Allocate 23 x  1 Levels for Diagnostic #   660 TRAC38
(PID.TID 0000.0001) SETDIAG: Allocate 23 x  1 Levels for Diagnostic #   673 TRAC39
(PID.TID 0000.0001) SETDIAG: Allocate 23 x  1 Levels for Diagnostic #   686 TRAC40
(PID.TID 0000.0001) SETDIAG: Allocate 23 x  1 Levels for Diagnostic #   699 TRAC41
(PID.TID 0000.0001) SETDIAG: Allocate 23 x  1 Levels for Diagnostic #   712 TRAC42
(PID.TID 0000.0001) SETDIAG: Allocate 23 x  1 Levels for Diagnostic #   725 TRAC43
(PID.TID 0000.0001) SETDIAG: Allocate 23 x  1 Levels for Diagnostic #   738 TRAC44
(PID.TID 0000.0001) SETDIAG: Allocate 23 x  1 Levels for Diagnostic #   751 TRAC45
(PID.TID 0000.0001) SETDIAG: Allocate 23 x  1 Levels for Diagnostic #   764 TRAC46
(PID.TID 0000.0001) SETDIAG: Allocate 23 x  1 Levels for Diagnostic #   777 TRAC47
(PID.TID 0000.0001) SETDIAG: Allocate 23 x  1 Levels for Diagnostic #   790 TRAC48
(PID.TID 0000.0001) SETDIAG: Allocate 23 x  1 Levels for Diagnostic #   803 TRAC49
(PID.TID 0000.0001) SETDIAG: Allocate 23 x  1 Levels for Diagnostic #   816 TRAC50
(PID.TID 0000.0001) SETDIAG: Allocate 23 x  1 Levels for Diagnostic #   829 TRAC51
(PID.TID 0000.0001) SETDIAG: Allocate 23 x  1 Levels for Diagnostic #   842 TRAC52
(PID.TID 0000.0001) SETDIAG: Allocate 23 x  1 Levels for Diagnostic #   855 TRAC53
(PID.TID 0000.0001) SETDIAG: Allocate 23 x  1 Levels for Diagnostic #   868 TRAC54
(PID.TID 0000.0001) SETDIAG: Allocate 23 x  1 Levels for Diagnostic #   881 TRAC55
(PID.TID 0000.0001) SETDIAG: Allocate 23 x  1 Levels for Diagnostic #   894 TRAC56
(PID.TID 0000.0001) SETDIAG: Allocate 23 x  1 Levels for Diagnostic #   907 TRAC57
(PID.TID 0000.0001) SETDIAG: Allocate 23 x  1 Levels for Diagnostic #   920 TRAC58
(PID.TID 0000.0001) SETDIAG: Allocate 23 x  1 Levels for Diagnostic #   933 TRAC59
(PID.TID 0000.0001) SETDIAG: Allocate 23 x  1 Levels for Diagnostic #   946 TRAC60
(PID.TID 0000.0001) SETDIAG: Allocate 23 x  1 Levels for Diagnostic #   959 TRAC61
(PID.TID 0000.0001) SETDIAG: Allocate 23 x  1 Levels for Diagnostic #   972 TRAC62
(PID.TID 0000.0001) SETDIAG: Allocate 23 x  1 Levels for Diagnostic #   985 TRAC63
(PID.TID 0000.0001) SETDIAG: Allocate 23 x  1 Levels for Diagnostic #   998 TRAC64
(PID.TID 0000.0001) SETDIAG: Allocate 23 x  1 Levels for Diagnostic #  1011 TRAC65
(PID.TID 0000.0001) SETDIAG: Allocate 23 x  1 Levels for Diagnostic #  1024 TRAC66
(PID.TID 0000.0001) SETDIAG: Allocate 23 x  1 Levels for Diagnostic #  1037 TRAC67
(PID.TID 0000.0001) SETDIAG: Allocate 23 x  1 Levels for Diagnostic #  1050 TRAC68
(PID.TID 0000.0001) SETDIAG: Allocate 23 x  1 Levels for Diagnostic #  1063 TRAC69
(PID.TID 0000.0001) SETDIAG: Allocate 23 x  1 Levels for Diagnostic #  1076 TRAC70
(PID.TID 0000.0001) SETDIAG: Allocate 23 x  1 Levels for Diagnostic #  1089 TRAC71
(PID.TID 0000.0001) SETDIAG: Allocate 23 x  1 Levels for Diagnostic #  1102 TRAC72
(PID.TID 0000.0001) SETDIAG: Allocate 23 x  1 Levels for Diagnostic #  1115 TRAC73
(PID.TID 0000.0001) SETDIAG: Allocate 23 x  1 Levels for Diagnostic #  1128 TRAC74
(PID.TID 0000.0001) SETDIAG: Allocate 23 x  1 Levels for Diagnostic #  1141 TRAC75
(PID.TID 0000.0001) SETDIAG: Allocate 23 x  1 Levels for Diagnostic #  1154 TRAC76
(PID.TID 0000.0001) SETDIAG: Allocate 23 x  1 Levels for Diagnostic #  1167 TRAC77
(PID.TID 0000.0001) SETDIAG: Allocate 23 x  1 Levels for Diagnostic #  1180 TRAC78
(PID.TID 0000.0001) SETDIAG: Allocate 23 x  1 Levels for Diagnostic #  1193 TRAC79
(PID.TID 0000.0001) SETDIAG: Allocate 23 x  1 Levels for Diagnostic #  1206 TRAC80
(PID.TID 0000.0001) SETDIAG: Allocate 23 x  1 Levels for Diagnostic #  1219 TRAC81
(PID.TID 0000.0001) SETDIAG: Allocate 23 x  1 Levels for Diagnostic #  1232 TRAC82
(PID.TID 0000.0001) SETDIAG: Allocate 23 x  1 Levels for Diagnostic #  1245 TRAC83
(PID.TID 0000.0001) SETDIAG: Allocate 23 x  1 Levels for Diagnostic #  1258 TRAC84
(PID.TID 0000.0001) SETDIAG: Allocate 23 x  1 Levels for Diagnostic #  1271 TRAC85
(PID.TID 0000.0001) SETDIAG: Allocate 23 x  1 Levels for Diagnostic #  1284 TRAC86
(PID.TID 0000.0001) SETDIAG: Allocate 23 x  1 Levels for Diagnostic #  1297 TRAC87
(PID.TID 0000.0001) SETDIAG: Allocate 23 x  1 Levels for Diagnostic #  1310 TRAC88
(PID.TID 0000.0001) SETDIAG: Allocate 23 x  1 Levels for Diagnostic #  1323 TRAC89
(PID.TID 0000.0001) SETDIAG: Allocate 23 x  1 Levels for Diagnostic #  1336 TRAC90
(PID.TID 0000.0001) SETDIAG: Allocate 23 x  1 Levels for Diagnostic #  1349 TRAC91
(PID.TID 0000.0001) SETDIAG: Allocate 23 x  1 Levels for Diagnostic #  1362 TRAC92
(PID.TID 0000.0001) SETDIAG: Allocate 23 x  1 Levels for Diagnostic #  1375 TRAC93
(PID.TID 0000.0001) SETDIAG: Allocate 23 x  1 Levels for Diagnostic #  1388 TRAC94
(PID.TID 0000.0001) SETDIAG: Allocate 23 x  1 Levels for Diagnostic #  1401 TRAC95
(PID.TID 0000.0001) SETDIAG: Allocate 23 x  1 Levels for Diagnostic #  1414 TRAC96
(PID.TID 0000.0001) SETDIAG: Allocate 23 x  1 Levels for Diagnostic #  1427 TRAC97
(PID.TID 0000.0001) SETDIAG: Allocate 23 x  1 Levels for Diagnostic #  1440 TRAC98
(PID.TID 0000.0001) SETDIAG: Allocate 23 x  1 Levels for Diagnostic #  1453 TRAC99
(PID.TID 0000.0001) SETDIAG: Allocate 23 x  1 Levels for Diagnostic #  1466 TRAC0a
(PID.TID 0000.0001) SETDIAG: Allocate 23 x  1 Levels for Diagnostic #  1479 TRAC0b
(PID.TID 0000.0001) SETDIAG: Allocate 23 x  1 Levels for Diagnostic #  1492 TRAC0c
(PID.TID 0000.0001) SETDIAG: Allocate 23 x  1 Levels for Diagnostic #  1505 TRAC0d
(PID.TID 0000.0001) SETDIAG: Allocate 23 x  1 Levels for Diagnostic #  1518 TRAC0e
(PID.TID 0000.0001) SETDIAG: Allocate 23 x  1 Levels for Diagnostic #  1531 TRAC0f
(PID.TID 0000.0001) SETDIAG: Allocate 23 x  1 Levels for Diagnostic #  1544 TRAC0g
(PID.TID 0000.0001) SETDIAG: Allocate 23 x  1 Levels for Diagnostic #  1557 TRAC0h
(PID.TID 0000.0001) SETDIAG: Allocate 23 x  1 Levels for Diagnostic #  1570 TRAC0i
(PID.TID 0000.0001) SETDIAG: Allocate 23 x  1 Levels for Diagnostic #  1583 TRAC0j
(PID.TID 0000.0001) SETDIAG: Allocate 23 x  1 Levels for Diagnostic #  1596 TRAC0k
(PID.TID 0000.0001) SETDIAG: Allocate 23 x  1 Levels for Diagnostic #  1609 TRAC0l
(PID.TID 0000.0001) SETDIAG: Allocate 23 x  1 Levels for Diagnostic #  1622 TRAC0m
(PID.TID 0000.0001) SETDIAG: Allocate 23 x  1 Levels for Diagnostic #  1635 TRAC0n
(PID.TID 0000.0001) - NOTE - SETDIAG:  Diagnostic  #   179 TRAC01   is already set
(PID.TID 0000.0001) SETDIAG: Allocate 23 x  1 Levels for Diagnostic #  1648 TRAC0o
(PID.TID 0000.0001) SETDIAG: Allocate 23 x  1 Levels for Diagnostic #  1674 TRAC0q
(PID.TID 0000.0001) SETDIAG: Allocate 23 x  1 Levels for Diagnostic #  1687 TRAC0r
(PID.TID 0000.0001) SETDIAG: Allocate 23 x  1 Levels for Diagnostic #  1700 TRAC0s
(PID.TID 0000.0001) SETDIAG: Allocate 23 x  1 Levels for Diagnostic #  1713 TRAC0t
(PID.TID 0000.0001) SETDIAG: Allocate 23 x  1 Levels for Diagnostic #  1726 TRAC0u
(PID.TID 0000.0001) SETDIAG: Allocate 23 x  1 Levels for Diagnostic #  1739 TRAC0v
(PID.TID 0000.0001) SETDIAG: Allocate 23 x  1 Levels for Diagnostic #  1752 TRAC0w
(PID.TID 0000.0001) SETDIAG: Allocate 23 x  1 Levels for Diagnostic #  1765 TRAC0x
(PID.TID 0000.0001) SETDIAG: Allocate 23 x  1 Levels for Diagnostic #  1778 TRAC0y
(PID.TID 0000.0001) SETDIAG: Allocate 23 x  1 Levels for Diagnostic #  1791 TRAC0z
(PID.TID 0000.0001) SETDIAG: Allocate 23 x  1 Levels for Diagnostic #  1804 TRAC0A
(PID.TID 0000.0001) SETDIAG: Allocate 23 x  1 Levels for Diagnostic #  1817 TRAC0B
(PID.TID 0000.0001) SETDIAG: Allocate 23 x  1 Levels for Diagnostic #  1830 TRAC0C
(PID.TID 0000.0001) SETDIAG: Allocate 23 x  1 Levels for Diagnostic #  1843 TRAC0D
(PID.TID 0000.0001) SETDIAG: Allocate 23 x  1 Levels for Diagnostic #  1856 TRAC0E
(PID.TID 0000.0001) SETDIAG: Allocate 23 x  1 Levels for Diagnostic #  1869 TRAC0F
(PID.TID 0000.0001) SETDIAG: Allocate 23 x  1 Levels for Diagnostic #  1882 TRAC0G
(PID.TID 0000.0001) SETDIAG: Allocate 23 x  1 Levels for Diagnostic #  1895 TRAC0H
(PID.TID 0000.0001) SETDIAG: Allocate 23 x  1 Levels for Diagnostic #  1908 TRAC0I
(PID.TID 0000.0001) SETDIAG: Allocate 23 x  1 Levels for Diagnostic #  1921 TRAC0J
(PID.TID 0000.0001) SETDIAG: Allocate 23 x  1 Levels for Diagnostic #  1934 TRAC0K
(PID.TID 0000.0001) SETDIAG: Allocate 23 x  1 Levels for Diagnostic #  1947 TRAC0L
(PID.TID 0000.0001) SETDIAG: Allocate 23 x  1 Levels for Diagnostic #  1960 TRAC0M
(PID.TID 0000.0001) SETDIAG: Allocate 23 x  1 Levels for Diagnostic #  1973 TRAC0N
(PID.TID 0000.0001) - NOTE - SETDIAG:  Diagnostic  #   179 TRAC01   is already set
(PID.TID 0000.0001) SETDIAG: Allocate 23 x  1 Levels for Diagnostic #  1986 TRAC0O
(PID.TID 0000.0001) SETDIAG: Allocate 23 x  1 Levels for Diagnostic #  2012 TRAC0Q
(PID.TID 0000.0001) SETDIAG: Allocate 23 x  1 Levels for Diagnostic #  2025 TRAC0R
(PID.TID 0000.0001) SETDIAG: Allocate 23 x  1 Levels for Diagnostic #  2038 TRAC0S
(PID.TID 0000.0001) SETDIAG: Allocate 23 x  1 Levels for Diagnostic #  2051 TRAC0T
(PID.TID 0000.0001) SETDIAG: Allocate 23 x  1 Levels for Diagnostic #  2064 TRAC0U
(PID.TID 0000.0001) SETDIAG: Allocate 23 x  1 Levels for Diagnostic #  2077 TRAC0V
(PID.TID 0000.0001) SETDIAG: Allocate 23 x  1 Levels for Diagnostic #  2090 TRAC0W
(PID.TID 0000.0001) SETDIAG: Allocate 23 x  1 Levels for Diagnostic #  2103 TRAC0X
(PID.TID 0000.0001) SETDIAG: Allocate 23 x  1 Levels for Diagnostic #  2116 TRAC0Y
(PID.TID 0000.0001) SETDIAG: Allocate 23 x  1 Levels for Diagnostic #  2129 TRAC0Z
(PID.TID 0000.0001) SETDIAG: Allocate 23 x  1 Levels for Diagnostic #  2142 TRAC1a
(PID.TID 0000.0001) SETDIAG: Allocate 23 x  1 Levels for Diagnostic #  2155 TRAC1b
(PID.TID 0000.0001) SETDIAG: Allocate 23 x  1 Levels for Diagnostic #  2168 TRAC1c
(PID.TID 0000.0001) SETDIAG: Allocate 23 x  1 Levels for Diagnostic #  2181 TRAC1d
(PID.TID 0000.0001) SETDIAG: Allocate 23 x  1 Levels for Diagnostic #  2194 TRAC1e
(PID.TID 0000.0001) SETDIAG: Allocate 23 x  1 Levels for Diagnostic #  2207 TRAC1f
(PID.TID 0000.0001) SETDIAG: Allocate 23 x  1 Levels for Diagnostic #  2220 TRAC1g
(PID.TID 0000.0001) SETDIAG: Allocate 23 x  1 Levels for Diagnostic #  2233 TRAC1h
(PID.TID 0000.0001) SETDIAG: Allocate 23 x  1 Levels for Diagnostic #  2246 TRAC1i
(PID.TID 0000.0001) SETDIAG: Allocate 23 x  1 Levels for Diagnostic #  2259 TRAC1j
(PID.TID 0000.0001) SETDIAG: Allocate 23 x  1 Levels for Diagnostic #  2272 TRAC1k
(PID.TID 0000.0001) SETDIAG: Allocate 23 x  1 Levels for Diagnostic #  2285 TRAC1l
(PID.TID 0000.0001) SETDIAG: Allocate 23 x  1 Levels for Diagnostic #  2298 TRAC1m
(PID.TID 0000.0001) SETDIAG: Allocate 23 x  1 Levels for Diagnostic #  2311 TRAC1n
(PID.TID 0000.0001) - NOTE - SETDIAG:  Diagnostic  #   309 TRAC11   is already set
(PID.TID 0000.0001) SETDIAG: Allocate 23 x  1 Levels for Diagnostic #  2324 TRAC1o
(PID.TID 0000.0001) SETDIAG: Allocate 23 x  1 Levels for Diagnostic #  2350 TRAC1q
(PID.TID 0000.0001) SETDIAG: Allocate 23 x  1 Levels for Diagnostic #  2363 TRAC1r
(PID.TID 0000.0001) SETDIAG: Allocate 23 x  1 Levels for Diagnostic #  2376 TRAC1s
(PID.TID 0000.0001) SETDIAG: Allocate 23 x  1 Levels for Diagnostic #  2389 TRAC1t
(PID.TID 0000.0001) SETDIAG: Allocate 23 x  1 Levels for Diagnostic #  2402 TRAC1u
(PID.TID 0000.0001) SETDIAG: Allocate 23 x  1 Levels for Diagnostic #  2415 TRAC1v
(PID.TID 0000.0001) SETDIAG: Allocate 23 x  1 Levels for Diagnostic #  2428 TRAC1w
(PID.TID 0000.0001) SETDIAG: Allocate 23 x  1 Levels for Diagnostic #  2441 TRAC1x
(PID.TID 0000.0001) SETDIAG: Allocate 23 x  1 Levels for Diagnostic #  2454 TRAC1y
(PID.TID 0000.0001) SETDIAG: Allocate 23 x  1 Levels for Diagnostic #  2467 TRAC1z
(PID.TID 0000.0001) SETDIAG: Allocate 23 x  1 Levels for Diagnostic #  2480 TRAC1A
(PID.TID 0000.0001) SETDIAG: Allocate 23 x  1 Levels for Diagnostic #  2493 TRAC1B
(PID.TID 0000.0001) SETDIAG: Allocate 23 x  1 Levels for Diagnostic #  2506 TRAC1C
(PID.TID 0000.0001) SETDIAG: Allocate 23 x  1 Levels for Diagnostic #  2519 TRAC1D
(PID.TID 0000.0001) SETDIAG: Allocate 23 x  1 Levels for Diagnostic #  2532 TRAC1E
(PID.TID 0000.0001) SETDIAG: Allocate 23 x  1 Levels for Diagnostic #  2545 TRAC1F
(PID.TID 0000.0001) SETDIAG: Allocate 23 x  1 Levels for Diagnostic #  2558 TRAC1G
(PID.TID 0000.0001) SETDIAG: Allocate 23 x  1 Levels for Diagnostic #  2571 TRAC1H
(PID.TID 0000.0001) SETDIAG: Allocate 23 x  1 Levels for Diagnostic #  2584 TRAC1I
(PID.TID 0000.0001) SETDIAG: Allocate 23 x  1 Levels for Diagnostic #  2597 TRAC1J
(PID.TID 0000.0001) SETDIAG: Allocate 23 x  1 Levels for Diagnostic #  2610 TRAC1K
(PID.TID 0000.0001) SETDIAG: Allocate 23 x  1 Levels for Diagnostic #  2623 TRAC1L
(PID.TID 0000.0001) SETDIAG: Allocate 23 x  1 Levels for Diagnostic #  2636 TRAC1M
(PID.TID 0000.0001) SETDIAG: Allocate 23 x  1 Levels for Diagnostic #  2649 TRAC1N
(PID.TID 0000.0001) - NOTE - SETDIAG:  Diagnostic  #   309 TRAC11   is already set
(PID.TID 0000.0001) SETDIAG: Allocate 23 x  1 Levels for Diagnostic #  2662 TRAC1O
(PID.TID 0000.0001) SETDIAG: Allocate 23 x  1 Levels for Diagnostic #  2688 TRAC1Q
(PID.TID 0000.0001) SETDIAG: Allocate 23 x  1 Levels for Diagnostic #  2701 TRAC1R
(PID.TID 0000.0001) SETDIAG: Allocate 23 x  1 Levels for Diagnostic #  2714 TRAC1S
(PID.TID 0000.0001) SETDIAG: Allocate 23 x  1 Levels for Diagnostic #  2727 TRAC1T
(PID.TID 0000.0001) SETDIAG: Allocate 23 x  1 Levels for Diagnostic #  2740 TRAC1U
(PID.TID 0000.0001) SETDIAG: Allocate 23 x  1 Levels for Diagnostic #  2753 TRAC1V
(PID.TID 0000.0001) SETDIAG: Allocate 23 x  1 Levels for Diagnostic #  2766 TRAC1W
(PID.TID 0000.0001) SETDIAG: Allocate 23 x  1 Levels for Diagnostic #  2779 TRAC1X
(PID.TID 0000.0001) SETDIAG: Allocate 23 x  1 Levels for Diagnostic #  2792 TRAC1Y
(PID.TID 0000.0001) SETDIAG: Allocate 23 x  1 Levels for Diagnostic #  2805 TRAC1Z
(PID.TID 0000.0001) SETDIAG: Allocate 23 x  1 Levels for Diagnostic #  2818 TRAC2a
(PID.TID 0000.0001) SETDIAG: Allocate 23 x  1 Levels for Diagnostic #  2831 TRAC2b
(PID.TID 0000.0001) SETDIAG: Allocate 23 x  1 Levels for Diagnostic #  2844 TRAC2c
(PID.TID 0000.0001) SETDIAG: Allocate 23 x  1 Levels for Diagnostic #  2857 TRAC2d
(PID.TID 0000.0001) SETDIAG: Allocate 23 x  1 Levels for Diagnostic #  2870 TRAC2e
(PID.TID 0000.0001) SETDIAG: Allocate 23 x  1 Levels for Diagnostic #  2883 TRAC2f
(PID.TID 0000.0001) SETDIAG: Allocate 23 x  1 Levels for Diagnostic #  2896 TRAC2g
(PID.TID 0000.0001) SETDIAG: Allocate 23 x  1 Levels for Diagnostic #  2909 TRAC2h
(PID.TID 0000.0001) SETDIAG: Allocate 23 x  1 Levels for Diagnostic #  2922 TRAC2i
(PID.TID 0000.0001) SETDIAG: Allocate 23 x  1 Levels for Diagnostic #  2935 TRAC2j
(PID.TID 0000.0001) SETDIAG: Allocate 23 x  1 Levels for Diagnostic #  2948 TRAC2k
(PID.TID 0000.0001) SETDIAG: Allocate 23 x  1 Levels for Diagnostic #  2961 TRAC2l
(PID.TID 0000.0001) SETDIAG: Allocate 23 x  1 Levels for Diagnostic #  2974 TRAC2m
(PID.TID 0000.0001) SETDIAG: Allocate 23 x  1 Levels for Diagnostic #  2987 TRAC2n
(PID.TID 0000.0001) - NOTE - SETDIAG:  Diagnostic  #   439 TRAC21   is already set
(PID.TID 0000.0001) SETDIAG: Allocate 23 x  1 Levels for Diagnostic #  3000 TRAC2o
(PID.TID 0000.0001) SETDIAG: Allocate 23 x  1 Levels for Diagnostic #  3026 TRAC2q
(PID.TID 0000.0001) SETDIAG: Allocate 23 x  1 Levels for Diagnostic #  3039 TRAC2r
(PID.TID 0000.0001) SETDIAG: Allocate 23 x  1 Levels for Diagnostic #  3052 TRAC2s
(PID.TID 0000.0001) SETDIAG: Allocate 23 x  1 Levels for Diagnostic #  3065 TRAC2t
(PID.TID 0000.0001) SETDIAG: Allocate 23 x  1 Levels for Diagnostic #  3078 TRAC2u
(PID.TID 0000.0001) SETDIAG: Allocate 23 x  1 Levels for Diagnostic #  3091 TRAC2v
(PID.TID 0000.0001) SETDIAG: Allocate 23 x  1 Levels for Diagnostic #  3104 TRAC2w
(PID.TID 0000.0001) SETDIAG: Allocate 23 x  1 Levels for Diagnostic #  3117 TRAC2x
(PID.TID 0000.0001) SETDIAG: Allocate 23 x  1 Levels for Diagnostic #  3130 TRAC2y
(PID.TID 0000.0001) SETDIAG: Allocate 23 x  1 Levels for Diagnostic #  3143 TRAC2z
(PID.TID 0000.0001) SETDIAG: Allocate 23 x  1 Levels for Diagnostic #  3156 TRAC2A
(PID.TID 0000.0001) SETDIAG: Allocate 23 x  1 Levels for Diagnostic #  3169 TRAC2B
(PID.TID 0000.0001) SETDIAG: Allocate 23 x  1 Levels for Diagnostic #  3182 TRAC2C
(PID.TID 0000.0001) SETDIAG: Allocate 23 x  1 Levels for Diagnostic #  3195 TRAC2D
(PID.TID 0000.0001) SETDIAG: Allocate 23 x  1 Levels for Diagnostic #  3216 PAR01
(PID.TID 0000.0001) SETDIAG: Allocate 23 x  1 Levels for Diagnostic #  3209 PP
(PID.TID 0000.0001) SETDIAG: Allocate 23 x  1 Levels for Diagnostic #  3210 Nfix
(PID.TID 0000.0001) SETDIAG: Allocate 23 x  1 Levels for Diagnostic #  3211 Denit
(PID.TID 0000.0001)   space allocated for all diagnostics:    5336 levels
(PID.TID 0000.0001) DIAGNOSTICS_SET_POINTERS: Set levels for Outp.Stream: gud
(PID.TID 0000.0001)  Levels:       1.   2.   3.   4.   5.   6.   7.   8.   9.  10.  11.  12.  13.  14.  15.  16.  17.  18.  19.  20.
(PID.TID 0000.0001)  Levels:      21.  22.  23.
(PID.TID 0000.0001) DIAGNOSTICS_SET_POINTERS: done
(PID.TID 0000.0001) ------------------------------------------------------------
(PID.TID 0000.0001) DIAGSTATS_SET_REGIONS: define no region
(PID.TID 0000.0001) ------------------------------------------------------------
(PID.TID 0000.0001) SETDIAG: Allocate 23 Levels for Stats-Diag #  3209 PP
(PID.TID 0000.0001) SETDIAG: Allocate 23 Levels for Stats-Diag #  3210 Nfix
(PID.TID 0000.0001) SETDIAG: Allocate 23 Levels for Stats-Diag #  3211 Denit
(PID.TID 0000.0001)   space allocated for all stats-diags:      69 levels
(PID.TID 0000.0001) DIAGSTATS_SET_POINTERS: done
(PID.TID 0000.0001) ------------------------------------------------------------
(PID.TID 0000.0001) DIAGSTATS_INI_IO: open file: statsPP.0000000000.txt , unit=     9
(PID.TID 0000.0001) DIAGSTATS_INI_IO: open file: statsNfix.0000000000.txt , unit=    10
(PID.TID 0000.0001) DIAGSTATS_INI_IO: open file: statsDenit.0000000000.txt , unit=    16
(PID.TID 0000.0001) %MON fCori_max                    =   1.4340032469286622E-04
(PID.TID 0000.0001) %MON fCori_min                    =  -1.4340032469286622E-04
(PID.TID 0000.0001) %MON fCori_mean                   =  -4.7512148536475886E-19
(PID.TID 0000.0001) %MON fCori_sd                     =   9.6604363594752368E-05
(PID.TID 0000.0001) %MON fCoriG_max                   =   1.4316293338671472E-04
(PID.TID 0000.0001) %MON fCoriG_min                   =  -1.4362679550909542E-04
(PID.TID 0000.0001) %MON fCoriG_mean                  =  -8.9766747193207384E-07
(PID.TID 0000.0001) %MON fCoriG_sd                    =   9.6601219725586662E-05
(PID.TID 0000.0001) %MON fCoriCos_max                 =   1.4583691710542328E-04
(PID.TID 0000.0001) %MON fCoriCos_min                 =   2.6577679221447745E-05
(PID.TID 0000.0001) %MON fCoriCos_mean                =   1.0286642071176022E-04
(PID.TID 0000.0001) %MON fCoriCos_sd                  =   3.6825569638793567E-05
(PID.TID 0000.0001) INI_CG2D: CG2D normalisation factor =  5.6948601716296077E-05
(PID.TID 0000.0001) 
(PID.TID 0000.0001) // =======================================================
(PID.TID 0000.0001) // Model configuration
(PID.TID 0000.0001) // =======================================================
(PID.TID 0000.0001) //
(PID.TID 0000.0001) // "Physical" paramters ( PARM01 in namelist )
(PID.TID 0000.0001) //
(PID.TID 0000.0001) buoyancyRelation = /* Type of relation to get Buoyancy */
(PID.TID 0000.0001)               'OCEANIC'
(PID.TID 0000.0001)     ;
(PID.TID 0000.0001) fluidIsAir   =  /* fluid major constituent is Air */
(PID.TID 0000.0001)                   F
(PID.TID 0000.0001)     ;
(PID.TID 0000.0001) fluidIsWater =  /* fluid major constituent is Water */
(PID.TID 0000.0001)                   T
(PID.TID 0000.0001)     ;
(PID.TID 0000.0001) usingPCoords =  /* use p (or p*) vertical coordinate */
(PID.TID 0000.0001)                   F
(PID.TID 0000.0001)     ;
(PID.TID 0000.0001) usingZCoords =  /* use z (or z*) vertical coordinate */
(PID.TID 0000.0001)                   T
(PID.TID 0000.0001)     ;
(PID.TID 0000.0001) tRef =   /* Reference temperature profile ( oC or K ) */
(PID.TID 0000.0001)                 2.400000000000000E+01,      /* K =  1 */
(PID.TID 0000.0001)                 2.300000000000000E+01,      /* K =  2 */
(PID.TID 0000.0001)                 2.200000000000000E+01,      /* K =  3 */
(PID.TID 0000.0001)                 2.100000000000000E+01,      /* K =  4 */
(PID.TID 0000.0001)                 2.000000000000000E+01,      /* K =  5 */
(PID.TID 0000.0001)                 1.900000000000000E+01,      /* K =  6 */
(PID.TID 0000.0001)                 1.800000000000000E+01,      /* K =  7 */
(PID.TID 0000.0001)                 1.700000000000000E+01,      /* K =  8 */
(PID.TID 0000.0001)                 1.600000000000000E+01,      /* K =  9 */
(PID.TID 0000.0001)                 1.500000000000000E+01,      /* K = 10 */
(PID.TID 0000.0001)                 1.400000000000000E+01,      /* K = 11 */
(PID.TID 0000.0001)                 1.300000000000000E+01,      /* K = 12 */
(PID.TID 0000.0001)                 1.200000000000000E+01,      /* K = 13 */
(PID.TID 0000.0001)                 1.100000000000000E+01,      /* K = 14 */
(PID.TID 0000.0001)                 1.000000000000000E+01,      /* K = 15 */
(PID.TID 0000.0001)                 9.000000000000000E+00,      /* K = 16 */
(PID.TID 0000.0001)                 8.000000000000000E+00,      /* K = 17 */
(PID.TID 0000.0001)                 7.000000000000000E+00,      /* K = 18 */
(PID.TID 0000.0001)                 6.000000000000000E+00,      /* K = 19 */
(PID.TID 0000.0001)                 5.000000000000000E+00,      /* K = 20 */
(PID.TID 0000.0001)                 4.000000000000000E+00,      /* K = 21 */
(PID.TID 0000.0001)                 3.000000000000000E+00,      /* K = 22 */
(PID.TID 0000.0001)                 2.000000000000000E+00       /* K = 23 */
(PID.TID 0000.0001)     ;
(PID.TID 0000.0001) sRef =   /* Reference salinity profile ( psu ) */
(PID.TID 0000.0001)                 3.465000000000000E+01,      /* K =  1 */
(PID.TID 0000.0001)                 3.475000000000000E+01,      /* K =  2 */
(PID.TID 0000.0001)                 3.482000000000000E+01,      /* K =  3 */
(PID.TID 0000.0001)                 3.487000000000000E+01,      /* K =  4 */
(PID.TID 0000.0001)     2 @  3.490000000000000E+01,             /* K =  5:  6 */
(PID.TID 0000.0001)                 3.486000000000000E+01,      /* K =  7 */
(PID.TID 0000.0001)                 3.478000000000000E+01,      /* K =  8 */
(PID.TID 0000.0001)                 3.469000000000000E+01,      /* K =  9 */
(PID.TID 0000.0001)                 3.460000000000000E+01,      /* K = 10 */
(PID.TID 0000.0001)                 3.458000000000000E+01,      /* K = 11 */
(PID.TID 0000.0001)                 3.462000000000000E+01,      /* K = 12 */
(PID.TID 0000.0001)                 3.468000000000000E+01,      /* K = 13 */
(PID.TID 0000.0001)                 3.472000000000000E+01,      /* K = 14 */
(PID.TID 0000.0001)                 3.473000000000000E+01,      /* K = 15 */
(PID.TID 0000.0001)                 3.474000000000000E+01,      /* K = 16 */
(PID.TID 0000.0001)     2 @  3.473000000000000E+01,             /* K = 17: 18 */
(PID.TID 0000.0001)     2 @  3.472000000000000E+01,             /* K = 19: 20 */
(PID.TID 0000.0001)                 3.471000000000000E+01,      /* K = 21 */
(PID.TID 0000.0001)                 3.470000000000000E+01,      /* K = 22 */
(PID.TID 0000.0001)                 3.469000000000000E+01       /* K = 23 */
(PID.TID 0000.0001)     ;
(PID.TID 0000.0001) useStrainTensionVisc= /* Use StrainTension Form of Viscous Operator */
(PID.TID 0000.0001)                   F
(PID.TID 0000.0001)     ;
(PID.TID 0000.0001) useVariableVisc = /* Use variable horizontal viscosity */
(PID.TID 0000.0001)                   F
(PID.TID 0000.0001)     ;
(PID.TID 0000.0001) useHarmonicVisc = /* Use harmonic horizontal viscosity */
(PID.TID 0000.0001)                   F
(PID.TID 0000.0001)     ;
(PID.TID 0000.0001) useBiharmonicVisc= /* Use biharmonic horiz.  viscosity */
(PID.TID 0000.0001)                   F
(PID.TID 0000.0001)     ;
(PID.TID 0000.0001) useSmag3D = /* Use isotropic 3-D Smagorinsky viscosity */
(PID.TID 0000.0001)                   F
(PID.TID 0000.0001)     ;
(PID.TID 0000.0001) viscAh  =   /* Lateral harmonic viscosity ( m^2/s ) */
(PID.TID 0000.0001)                 1.000000000000000E+04
(PID.TID 0000.0001)     ;
(PID.TID 0000.0001) viscA4  =   /* Lateral biharmonic viscosity ( m^4/s ) */
(PID.TID 0000.0001)                 0.000000000000000E+00
(PID.TID 0000.0001)     ;
(PID.TID 0000.0001) no_slip_sides =  /* Viscous BCs: No-slip sides */
(PID.TID 0000.0001)                   F
(PID.TID 0000.0001)     ;
(PID.TID 0000.0001) sideDragFactor = /* side-drag scaling factor (non-dim) */
(PID.TID 0000.0001)                 2.000000000000000E+00
(PID.TID 0000.0001)     ;
(PID.TID 0000.0001) viscArNr = /* vertical profile of vertical viscosity ( m^2/s )*/
(PID.TID 0000.0001)    23 @  1.000000000000000E-03              /* K =  1: 23 */
(PID.TID 0000.0001)     ;
(PID.TID 0000.0001) no_slip_bottom =  /* Viscous BCs: No-slip bottom */
(PID.TID 0000.0001)                   T
(PID.TID 0000.0001)     ;
(PID.TID 0000.0001) bottomDragLinear = /* linear bottom-drag coefficient ( m/s ) */
(PID.TID 0000.0001)                 0.000000000000000E+00
(PID.TID 0000.0001)     ;
(PID.TID 0000.0001) bottomDragQuadratic = /* quadratic bottom-drag coefficient (-) */
(PID.TID 0000.0001)                 0.000000000000000E+00
(PID.TID 0000.0001)     ;
(PID.TID 0000.0001) diffKhT =   /* Laplacian diffusion of heat laterally ( m^2/s ) */
(PID.TID 0000.0001)                 1.000000000000000E+02
(PID.TID 0000.0001)     ;
(PID.TID 0000.0001) diffK4T =   /* Biharmonic diffusion of heat laterally ( m^4/s ) */
(PID.TID 0000.0001)                 0.000000000000000E+00
(PID.TID 0000.0001)     ;
(PID.TID 0000.0001) diffKhS =   /* Laplacian diffusion of salt laterally ( m^2/s ) */
(PID.TID 0000.0001)                 1.000000000000000E+02
(PID.TID 0000.0001)     ;
(PID.TID 0000.0001) diffK4S =   /* Biharmonic diffusion of salt laterally ( m^4/s ) */
(PID.TID 0000.0001)                 0.000000000000000E+00
(PID.TID 0000.0001)     ;
(PID.TID 0000.0001) diffKrNrT = /* vertical profile of vertical diffusion of Temp ( m^2/s )*/
(PID.TID 0000.0001)    23 @  1.000000000000000E-05              /* K =  1: 23 */
(PID.TID 0000.0001)     ;
(PID.TID 0000.0001) diffKrNrS = /* vertical profile of vertical diffusion of Salt ( m^2/s )*/
(PID.TID 0000.0001)    23 @  1.000000000000000E-05              /* K =  1: 23 */
(PID.TID 0000.0001)     ;
(PID.TID 0000.0001) diffKrBL79surf = /* Surface diffusion for Bryan and Lewis 79 ( m^2/s ) */
(PID.TID 0000.0001)                 0.000000000000000E+00
(PID.TID 0000.0001)     ;
(PID.TID 0000.0001) diffKrBL79deep = /* Deep diffusion for Bryan and Lewis 1979 ( m^2/s ) */
(PID.TID 0000.0001)                 0.000000000000000E+00
(PID.TID 0000.0001)     ;
(PID.TID 0000.0001) diffKrBL79scl = /* Depth scale for Bryan and Lewis 1979 ( m ) */
(PID.TID 0000.0001)                 2.000000000000000E+02
(PID.TID 0000.0001)     ;
(PID.TID 0000.0001) diffKrBL79Ho = /* Turning depth for Bryan and Lewis 1979 ( m ) */
(PID.TID 0000.0001)                -2.000000000000000E+03
(PID.TID 0000.0001)     ;
(PID.TID 0000.0001) ivdc_kappa = /* Implicit Vertical Diffusivity for Convection ( m^2/s) */
(PID.TID 0000.0001)                 0.000000000000000E+00
(PID.TID 0000.0001)     ;
(PID.TID 0000.0001) hMixCriteria=  /* Criteria for mixed-layer diagnostic */
(PID.TID 0000.0001)                -8.000000000000000E-01
(PID.TID 0000.0001)     ;
(PID.TID 0000.0001) dRhoSmall =  /* Parameter for mixed-layer diagnostic */
(PID.TID 0000.0001)                 1.000000000000000E-06
(PID.TID 0000.0001)     ;
(PID.TID 0000.0001) hMixSmooth=  /* Smoothing parameter for mixed-layer diagnostic */
(PID.TID 0000.0001)                 0.000000000000000E+00
(PID.TID 0000.0001)     ;
(PID.TID 0000.0001) eosType =  /* Type of Equation of State */
(PID.TID 0000.0001)               'POLY3 '
(PID.TID 0000.0001)     ;
(PID.TID 0000.0001)   1  13.499  32.600  24.480  -0.201   0.771  -0.005  -0.002   0.000   0.000   0.000   0.000   0.000
(PID.TID 0000.0001)   2  13.498  32.600  24.525  -0.202   0.771  -0.005  -0.002   0.000   0.000   0.000   0.000   0.000
(PID.TID 0000.0001)   3  13.496  32.600  24.581  -0.202   0.771  -0.005  -0.002   0.000   0.000   0.000   0.000   0.000
(PID.TID 0000.0001)   4  13.494  32.600  24.660  -0.202   0.771  -0.005  -0.002   0.000   0.000   0.000   0.000   0.000
(PID.TID 0000.0001)   5  13.491  32.600  24.750  -0.203   0.771  -0.005  -0.002   0.000   0.000   0.000   0.000   0.000
(PID.TID 0000.0001)   6  13.488  32.600  24.851  -0.203   0.770  -0.005  -0.002   0.000   0.000   0.000   0.000   0.000
(PID.TID 0000.0001)   7  13.484  32.600  24.985  -0.204   0.770  -0.005  -0.002   0.000   0.000   0.000   0.000   0.000
(PID.TID 0000.0001)   8  13.478  32.600  25.176  -0.204   0.770  -0.005  -0.002   0.000   0.000   0.000   0.000   0.000
(PID.TID 0000.0001)   9  13.469  32.600  25.456  -0.205   0.769  -0.005  -0.002   0.000   0.000   0.000   0.000   0.000
(PID.TID 0000.0001)  10   8.467  35.150  28.748  -0.163   0.781  -0.005  -0.002   0.001   0.000   0.000   0.000   0.000
(PID.TID 0000.0001)  11   8.454  35.150  29.315  -0.166   0.780  -0.005  -0.002   0.001   0.000   0.000   0.000   0.000
(PID.TID 0000.0001)  12   5.946  34.900  30.300  -0.143   0.785  -0.006  -0.002   0.001   0.000   0.000   0.000   0.000
(PID.TID 0000.0001)  13   4.433  34.900  31.591  -0.132   0.786  -0.006  -0.003   0.000   0.000   0.000   0.000   0.000
(PID.TID 0000.0001)  14   3.909  34.750  32.966  -0.134   0.785  -0.006  -0.003   0.000   0.000   0.000   0.000   0.000
(PID.TID 0000.0001)  15   1.899  34.800  35.002  -0.121   0.787  -0.006  -0.003  -0.000   0.000   0.000   0.000   0.000
(PID.TID 0000.0001)  16   1.372  34.750  36.991  -0.127   0.785  -0.006  -0.003  -0.001   0.000   0.000   0.000   0.000
(PID.TID 0000.0001)  17   1.332  34.800  39.171  -0.140   0.782  -0.006  -0.003  -0.002   0.000   0.000   0.000   0.000
(PID.TID 0000.0001)  18   0.797  34.800  41.472  -0.147   0.779  -0.006  -0.003  -0.001   0.000   0.000   0.000  -0.000
(PID.TID 0000.0001)  19   0.749  34.800  43.682  -0.160   0.775  -0.005  -0.002  -0.002   0.000   0.000   0.000  -0.000
(PID.TID 0000.0001)  20   0.214  34.750  45.912  -0.168   0.772  -0.005  -0.002  -0.002   0.000   0.000   0.000   0.000
(PID.TID 0000.0001)  21   0.160  34.750  48.080  -0.181   0.768  -0.005  -0.002  -0.003   0.000   0.000  -0.000  -0.000
(PID.TID 0000.0001)  22   0.584  34.750  50.131  -0.197   0.763  -0.005  -0.002  -0.001   0.000   0.000   0.000   0.000
(PID.TID 0000.0001)  23   0.522  34.750  52.248  -0.209   0.760  -0.005  -0.002  -0.002   0.000   0.000   0.000  -0.000
(PID.TID 0000.0001) HeatCapacity_Cp =  /* Specific heat capacity ( J/kg/K ) */
(PID.TID 0000.0001)                 3.994000000000000E+03
(PID.TID 0000.0001)     ;
(PID.TID 0000.0001) celsius2K = /* 0 degree Celsius converted to Kelvin ( K ) */
(PID.TID 0000.0001)                 2.731500000000000E+02
(PID.TID 0000.0001)     ;
(PID.TID 0000.0001) rhoConst  = /* Reference density (Boussinesq)  ( kg/m^3 ) */
(PID.TID 0000.0001)                 9.998000000000000E+02
(PID.TID 0000.0001)     ;
(PID.TID 0000.0001) rhoFacC = /* normalized Reference density @ cell-Center (-) */
(PID.TID 0000.0001)    23 @  1.000000000000000E+00              /* K =  1: 23 */
(PID.TID 0000.0001)     ;
(PID.TID 0000.0001) rhoFacF = /* normalized Reference density @ W-Interface (-) */
(PID.TID 0000.0001)    24 @  1.000000000000000E+00              /* K =  1: 24 */
(PID.TID 0000.0001)     ;
(PID.TID 0000.0001) rhoConstFresh = /* Fresh-water reference density ( kg/m^3 ) */
(PID.TID 0000.0001)                 9.998000000000000E+02
(PID.TID 0000.0001)     ;
(PID.TID 0000.0001) gravity =   /* Gravitational acceleration ( m/s^2 ) */
(PID.TID 0000.0001)                 9.810000000000000E+00
(PID.TID 0000.0001)     ;
(PID.TID 0000.0001) gBaro =   /* Barotropic gravity ( m/s^2 ) */
(PID.TID 0000.0001)                 9.810000000000000E+00
(PID.TID 0000.0001)     ;
(PID.TID 0000.0001) rotationPeriod =   /* Rotation Period ( s ) */
(PID.TID 0000.0001)                 8.616400000000000E+04
(PID.TID 0000.0001)     ;
(PID.TID 0000.0001) omega =   /* Angular velocity ( rad/s ) */
(PID.TID 0000.0001)                 7.292123516990375E-05
(PID.TID 0000.0001)     ;
(PID.TID 0000.0001) f0 =   /* Reference coriolis parameter ( 1/s ) */
(PID.TID 0000.0001)                 1.000000000000000E-04
(PID.TID 0000.0001)     ;
(PID.TID 0000.0001) beta =   /* Beta ( 1/(m.s) ) */
(PID.TID 0000.0001)                 9.999999999999999E-12
(PID.TID 0000.0001)     ;
(PID.TID 0000.0001) fPrime =   /* Second coriolis parameter ( 1/s ) */
(PID.TID 0000.0001)                 0.000000000000000E+00
(PID.TID 0000.0001)     ;
(PID.TID 0000.0001) rigidLid =   /* Rigid lid on/off flag */
(PID.TID 0000.0001)                   F
(PID.TID 0000.0001)     ;
(PID.TID 0000.0001) implicitFreeSurface =   /* Implicit free surface on/off flag */
(PID.TID 0000.0001)                   T
(PID.TID 0000.0001)     ;
(PID.TID 0000.0001) freeSurfFac =   /* Implicit free surface factor */
(PID.TID 0000.0001)                 1.000000000000000E+00
(PID.TID 0000.0001)     ;
(PID.TID 0000.0001) implicSurfPress =  /* Surface Pressure implicit factor (0-1)*/
(PID.TID 0000.0001)                 1.000000000000000E+00
(PID.TID 0000.0001)     ;
(PID.TID 0000.0001) implicDiv2Dflow =  /* Barot. Flow Div. implicit factor (0-1)*/
(PID.TID 0000.0001)                 1.000000000000000E+00
(PID.TID 0000.0001)     ;
(PID.TID 0000.0001) uniformLin_PhiSurf = /* use uniform Bo_surf on/off flag*/
(PID.TID 0000.0001)                   T
(PID.TID 0000.0001)     ;
(PID.TID 0000.0001) uniformFreeSurfLev = /* free-surface level-index is uniform */
(PID.TID 0000.0001)                   T
(PID.TID 0000.0001)     ;
(PID.TID 0000.0001) hFacMin =   /* minimum partial cell factor (hFac) */
(PID.TID 0000.0001)                 1.000000000000000E+00
(PID.TID 0000.0001)     ;
(PID.TID 0000.0001) hFacMinDr = /* minimum partial cell thickness ( m) */
(PID.TID 0000.0001)                 0.000000000000000E+00
(PID.TID 0000.0001)     ;
(PID.TID 0000.0001) exactConserv =  /* Exact Volume Conservation on/off flag*/
(PID.TID 0000.0001)                   F
(PID.TID 0000.0001)     ;
(PID.TID 0000.0001) linFSConserveTr = /* Tracer correction for Lin Free Surface on/off flag*/
(PID.TID 0000.0001)                   F
(PID.TID 0000.0001)     ;
(PID.TID 0000.0001) nonlinFreeSurf = /* Non-linear Free Surf. options (-1,0,1,2,3)*/
(PID.TID 0000.0001)                       0
(PID.TID 0000.0001)      -1,0= Off ; 1,2,3= On, 2=+rescale gU,gV, 3=+update cg2d solv.
(PID.TID 0000.0001)     ;
(PID.TID 0000.0001) hFacInf =   /* lower threshold for hFac (nonlinFreeSurf only)*/
(PID.TID 0000.0001)                 2.000000000000000E-01
(PID.TID 0000.0001)     ;
(PID.TID 0000.0001) hFacSup =   /* upper threshold for hFac (nonlinFreeSurf only)*/
(PID.TID 0000.0001)                 2.000000000000000E+00
(PID.TID 0000.0001)     ;
(PID.TID 0000.0001) select_rStar = /* r* Vertical coord. options (=0 r coord.; >0 uses r*)*/
(PID.TID 0000.0001)                       0
(PID.TID 0000.0001)     ;
(PID.TID 0000.0001) useRealFreshWaterFlux = /* Real Fresh Water Flux on/off flag*/
(PID.TID 0000.0001)                   F
(PID.TID 0000.0001)     ;
(PID.TID 0000.0001) temp_EvPrRn = /* Temp. of Evap/Prec/R (UNSET=use local T)(oC)*/
(PID.TID 0000.0001)                 1.234567000000000E+05
(PID.TID 0000.0001)     ;
(PID.TID 0000.0001) salt_EvPrRn = /* Salin. of Evap/Prec/R (UNSET=use local S)(psu)*/
(PID.TID 0000.0001)                 0.000000000000000E+00
(PID.TID 0000.0001)     ;
(PID.TID 0000.0001) selectAddFluid = /* option for mass source/sink of fluid (=0: off) */
(PID.TID 0000.0001)                       0
(PID.TID 0000.0001)     ;
(PID.TID 0000.0001) temp_addMass = /* Temp. of addMass array (UNSET=use local T)(oC)*/
(PID.TID 0000.0001)                 1.234567000000000E+05
(PID.TID 0000.0001)     ;
(PID.TID 0000.0001) salt_addMass = /* Salin. of addMass array (UNSET=use local S)(psu)*/
(PID.TID 0000.0001)                 0.000000000000000E+00
(PID.TID 0000.0001)     ;
(PID.TID 0000.0001) convertFW2Salt = /* convert F.W. Flux to Salt Flux (-1=use local S)(psu)*/
(PID.TID 0000.0001)                 3.500000000000000E+01
(PID.TID 0000.0001)     ;
(PID.TID 0000.0001) use3Dsolver = /* use 3-D pressure solver on/off flag */
(PID.TID 0000.0001)                   F
(PID.TID 0000.0001)     ;
(PID.TID 0000.0001) nonHydrostatic =  /* Non-Hydrostatic on/off flag */
(PID.TID 0000.0001)                   F
(PID.TID 0000.0001)     ;
(PID.TID 0000.0001) nh_Am2 = /* Non-Hydrostatic terms scaling factor */
(PID.TID 0000.0001)                 1.000000000000000E+00
(PID.TID 0000.0001)     ;
(PID.TID 0000.0001) implicitNHPress = /* Non-Hyd Pressure implicit factor (0-1)*/
(PID.TID 0000.0001)                 1.000000000000000E+00
(PID.TID 0000.0001)     ;
(PID.TID 0000.0001) selectNHfreeSurf = /* Non-Hyd (free-)Surface option */
(PID.TID 0000.0001)                       0
(PID.TID 0000.0001)     ;
(PID.TID 0000.0001) quasiHydrostatic = /* Quasi-Hydrostatic on/off flag */
(PID.TID 0000.0001)                   F
(PID.TID 0000.0001)     ;
(PID.TID 0000.0001) calc_wVelocity = /* vertical velocity calculation on/off flag */
(PID.TID 0000.0001)                   F
(PID.TID 0000.0001)     ;
(PID.TID 0000.0001) momStepping =  /* Momentum equation on/off flag */
(PID.TID 0000.0001)                   F
(PID.TID 0000.0001)     ;
(PID.TID 0000.0001) vectorInvariantMomentum= /* Vector-Invariant Momentum on/off */
(PID.TID 0000.0001)                   F
(PID.TID 0000.0001)     ;
(PID.TID 0000.0001) momAdvection =  /* Momentum advection on/off flag */
(PID.TID 0000.0001)                   F
(PID.TID 0000.0001)     ;
(PID.TID 0000.0001) momViscosity =  /* Momentum viscosity on/off flag */
(PID.TID 0000.0001)                   F
(PID.TID 0000.0001)     ;
(PID.TID 0000.0001) momImplVertAdv= /* Momentum implicit vert. advection on/off*/
(PID.TID 0000.0001)                   F
(PID.TID 0000.0001)     ;
(PID.TID 0000.0001) implicitViscosity = /* Implicit viscosity on/off flag */
(PID.TID 0000.0001)                   F
(PID.TID 0000.0001)     ;
(PID.TID 0000.0001) metricTerms =  /* metric-Terms on/off flag */
(PID.TID 0000.0001)                   T
(PID.TID 0000.0001)     ;
(PID.TID 0000.0001) useNHMTerms = /* Non-Hydrostatic Metric-Terms on/off */
(PID.TID 0000.0001)                   F
(PID.TID 0000.0001)     ;
(PID.TID 0000.0001) selectCoriMap = /* Coriolis Map options (0,1,2,3)*/
(PID.TID 0000.0001)                       2
(PID.TID 0000.0001)     0= f-Plane ; 1= Beta-Plane ; 2= Spherical ; 3= read from file
(PID.TID 0000.0001)     ;
(PID.TID 0000.0001) use3dCoriolis = /* 3-D Coriolis on/off flag */
(PID.TID 0000.0001)                   F
(PID.TID 0000.0001)     ;
(PID.TID 0000.0001) useCoriolis =  /* Coriolis on/off flag */
(PID.TID 0000.0001)                   F
(PID.TID 0000.0001)     ;
(PID.TID 0000.0001) useCDscheme =  /* CD scheme on/off flag */
(PID.TID 0000.0001)                   F
(PID.TID 0000.0001)     ;
(PID.TID 0000.0001) useEnergyConservingCoriolis= /* Flx-Form Coriolis scheme flag */
(PID.TID 0000.0001)                   F
(PID.TID 0000.0001)     ;
(PID.TID 0000.0001) useJamartWetPoints= /* Coriolis WetPoints method flag */
(PID.TID 0000.0001)                   F
(PID.TID 0000.0001)     ;
(PID.TID 0000.0001) useJamartMomAdv= /* V.I Non-linear terms Jamart flag */
(PID.TID 0000.0001)                   F
(PID.TID 0000.0001)     ;
(PID.TID 0000.0001) useAbsVorticity= /* V.I Works with f+zeta in Coriolis */
(PID.TID 0000.0001)                   F
(PID.TID 0000.0001)     ;
(PID.TID 0000.0001) selectVortScheme= /* V.I Scheme selector for Vorticity-Term */
(PID.TID 0000.0001)               123456789
(PID.TID 0000.0001)    = 0 : enstrophy (Shallow-Water Eq.) conserving scheme by Sadourny, JAS 75
(PID.TID 0000.0001)    = 1 : same as 0 with modified hFac
(PID.TID 0000.0001)    = 2 : energy conserving scheme (used by Sadourny in JAS 75 paper)
(PID.TID 0000.0001)    = 3 : energy (general) and enstrophy (2D, nonDiv.) conserving scheme
(PID.TID 0000.0001)          from Sadourny (Burridge & Haseler, ECMWF Rep.4, 1977)
(PID.TID 0000.0001)     ;
(PID.TID 0000.0001) upwindVorticity= /* V.I Upwind bias vorticity flag */
(PID.TID 0000.0001)                   F
(PID.TID 0000.0001)     ;
(PID.TID 0000.0001) highOrderVorticity= /* V.I High order vort. advect. flag */
(PID.TID 0000.0001)                   F
(PID.TID 0000.0001)     ;
(PID.TID 0000.0001) upwindShear= /* V.I Upwind vertical Shear advection flag */
(PID.TID 0000.0001)                   F
(PID.TID 0000.0001)     ;
(PID.TID 0000.0001) selectKEscheme= /* V.I Kinetic Energy scheme selector */
(PID.TID 0000.0001)                       0
(PID.TID 0000.0001)     ;
(PID.TID 0000.0001) momForcing =  /* Momentum forcing on/off flag */
(PID.TID 0000.0001)                   F
(PID.TID 0000.0001)     ;
(PID.TID 0000.0001) momPressureForcing =  /* Momentum pressure term on/off flag */
(PID.TID 0000.0001)                   F
(PID.TID 0000.0001)     ;
(PID.TID 0000.0001) implicitIntGravWave= /* Implicit Internal Gravity Wave flag */
(PID.TID 0000.0001)                   F
(PID.TID 0000.0001)     ;
(PID.TID 0000.0001) staggerTimeStep =    /* Stagger time stepping on/off flag */
(PID.TID 0000.0001)                   F
(PID.TID 0000.0001)     ;
(PID.TID 0000.0001) doResetHFactors = /* reset thickness factors @ each time-step */
(PID.TID 0000.0001)                   F
(PID.TID 0000.0001)     ;
(PID.TID 0000.0001) multiDimAdvection =  /* enable/disable Multi-Dim Advection */
(PID.TID 0000.0001)                   T
(PID.TID 0000.0001)     ;
(PID.TID 0000.0001) useMultiDimAdvec =   /* Multi-Dim Advection is/is-not used */
(PID.TID 0000.0001)                   T
(PID.TID 0000.0001)     ;
(PID.TID 0000.0001) implicitDiffusion = /* Implicit Diffusion on/off flag */
(PID.TID 0000.0001)                   T
(PID.TID 0000.0001)     ;
(PID.TID 0000.0001) tempStepping =  /* Temperature equation on/off flag */
(PID.TID 0000.0001)                   F
(PID.TID 0000.0001)     ;
(PID.TID 0000.0001) tempAdvection = /* Temperature advection on/off flag */
(PID.TID 0000.0001)                   F
(PID.TID 0000.0001)     ;
(PID.TID 0000.0001) tempImplVertAdv = /* Temp. implicit vert. advection on/off */
(PID.TID 0000.0001)                   F
(PID.TID 0000.0001)     ;
(PID.TID 0000.0001) tempForcing  =  /* Temperature forcing on/off flag */
(PID.TID 0000.0001)                   F
(PID.TID 0000.0001)     ;
(PID.TID 0000.0001) doThetaClimRelax = /* apply SST relaxation on/off flag */
(PID.TID 0000.0001)                   F
(PID.TID 0000.0001)     ;
(PID.TID 0000.0001) tempIsActiveTr = /* Temp. is a dynamically Active Tracer */
(PID.TID 0000.0001)                   F
(PID.TID 0000.0001)     ;
(PID.TID 0000.0001) saltStepping =  /* Salinity equation on/off flag */
(PID.TID 0000.0001)                   F
(PID.TID 0000.0001)     ;
(PID.TID 0000.0001) saltAdvection = /* Salinity advection on/off flag */
(PID.TID 0000.0001)                   F
(PID.TID 0000.0001)     ;
(PID.TID 0000.0001) saltImplVertAdv = /* Sali. implicit vert. advection on/off */
(PID.TID 0000.0001)                   F
(PID.TID 0000.0001)     ;
(PID.TID 0000.0001) saltForcing  =  /* Salinity forcing on/off flag */
(PID.TID 0000.0001)                   F
(PID.TID 0000.0001)     ;
(PID.TID 0000.0001) doSaltClimRelax = /* apply SSS relaxation on/off flag */
(PID.TID 0000.0001)                   F
(PID.TID 0000.0001)     ;
(PID.TID 0000.0001) saltIsActiveTr = /* Salt  is a dynamically Active Tracer */
(PID.TID 0000.0001)                   F
(PID.TID 0000.0001)     ;
(PID.TID 0000.0001)  readBinaryPrec = /* Precision used for reading binary files */
(PID.TID 0000.0001)                      64
(PID.TID 0000.0001)     ;
(PID.TID 0000.0001) writeBinaryPrec = /* Precision used for writing binary files */
(PID.TID 0000.0001)                      64
(PID.TID 0000.0001)     ;
(PID.TID 0000.0001)  globalFiles = /* write "global" (=not per tile) files */
(PID.TID 0000.0001)                   F
(PID.TID 0000.0001)     ;
(PID.TID 0000.0001)  useSingleCpuIO = /* only master MPI process does I/O */
(PID.TID 0000.0001)                   T
(PID.TID 0000.0001)     ;
(PID.TID 0000.0001)  useSingleCpuInput = /* only master process reads input */
(PID.TID 0000.0001)                   T
(PID.TID 0000.0001)     ;
(PID.TID 0000.0001) /* debLev[*]  : level of debug & auxiliary message printing */
(PID.TID 0000.0001) debLevZero =  0 ; /* level of disabled aux. msg printing */
(PID.TID 0000.0001)    debLevA =  1 ; /* level of minimum  aux. msg printing */
(PID.TID 0000.0001)    debLevB =  2 ; /* level of low aux. print (report read-file opening)*/
(PID.TID 0000.0001)    debLevC =  3 ; /* level of moderate debug prt (most pkgs debug msg) */
(PID.TID 0000.0001)    debLevD =  4 ; /* level of enhanced debug prt (add DEBUG_STATS prt) */
(PID.TID 0000.0001)    debLevE =  5 ; /* level of extensive debug printing */
(PID.TID 0000.0001) debugLevel =  /* select debug printing level */
(PID.TID 0000.0001)                       2
(PID.TID 0000.0001)     ;
(PID.TID 0000.0001) //
(PID.TID 0000.0001) // Elliptic solver(s) paramters ( PARM02 in namelist )
(PID.TID 0000.0001) //
(PID.TID 0000.0001) cg2dMaxIters =   /* Upper limit on 2d con. grad iterations  */
(PID.TID 0000.0001)                     300
(PID.TID 0000.0001)     ;
(PID.TID 0000.0001) cg2dChkResFreq =   /* 2d con. grad convergence test frequency */
(PID.TID 0000.0001)                       1
(PID.TID 0000.0001)     ;
(PID.TID 0000.0001) cg2dUseMinResSol= /* use cg2d last-iter(=0) / min-resid.(=1) solution */
(PID.TID 0000.0001)                       0
(PID.TID 0000.0001)     ;
(PID.TID 0000.0001) cg2dTargetResidual =   /* 2d con. grad target residual  */
(PID.TID 0000.0001)                 1.000000000000000E-07
(PID.TID 0000.0001)     ;
(PID.TID 0000.0001) cg2dTargetResWunit =   /* CG2d target residual [W units] */
(PID.TID 0000.0001)                -1.000000000000000E+00
(PID.TID 0000.0001)     ;
(PID.TID 0000.0001) cg2dPreCondFreq =   /* Freq. for updating cg2d preconditioner */
(PID.TID 0000.0001)                       1
(PID.TID 0000.0001)     ;
(PID.TID 0000.0001) useSRCGSolver =  /* use single reduction CG solver(s) */
(PID.TID 0000.0001)                   F
(PID.TID 0000.0001)     ;
(PID.TID 0000.0001) printResidualFreq = /* Freq. for printing CG residual */
(PID.TID 0000.0001)                       0
(PID.TID 0000.0001)     ;
(PID.TID 0000.0001) //
(PID.TID 0000.0001) // Time stepping paramters ( PARM03 in namelist )
(PID.TID 0000.0001) //
(PID.TID 0000.0001) deltaTMom =   /* Momentum equation timestep ( s ) */
(PID.TID 0000.0001)                 1.080000000000000E+04
(PID.TID 0000.0001)     ;
(PID.TID 0000.0001) deltaTFreeSurf = /* FreeSurface equation timestep ( s ) */
(PID.TID 0000.0001)                 1.080000000000000E+04
(PID.TID 0000.0001)     ;
(PID.TID 0000.0001) dTtracerLev =  /* Tracer equation timestep ( s ) */
(PID.TID 0000.0001)    23 @  1.080000000000000E+04              /* K =  1: 23 */
(PID.TID 0000.0001)     ;
(PID.TID 0000.0001) deltaTClock  =   /* Model clock timestep ( s ) */
(PID.TID 0000.0001)                 1.080000000000000E+04
(PID.TID 0000.0001)     ;
(PID.TID 0000.0001) cAdjFreq =   /* Convective adjustment interval ( s ) */
(PID.TID 0000.0001)                 0.000000000000000E+00
(PID.TID 0000.0001)     ;
(PID.TID 0000.0001) momForcingOutAB = /* =1: take Momentum Forcing out of Adams-Bash. stepping */
(PID.TID 0000.0001)                       0
(PID.TID 0000.0001)     ;
(PID.TID 0000.0001) tracForcingOutAB = /* =1: take T,S,pTr Forcing out of Adams-Bash. stepping */
(PID.TID 0000.0001)                       0
(PID.TID 0000.0001)     ;
(PID.TID 0000.0001) momDissip_In_AB = /* put Dissipation Tendency in Adams-Bash. stepping */
(PID.TID 0000.0001)                   T
(PID.TID 0000.0001)     ;
(PID.TID 0000.0001) doAB_onGtGs = /* apply AB on Tendencies (rather than on T,S)*/
(PID.TID 0000.0001)                   T
(PID.TID 0000.0001)     ;
(PID.TID 0000.0001) abEps =   /* Adams-Bashforth-2 stabilizing weight */
(PID.TID 0000.0001)                 1.000000000000000E-01
(PID.TID 0000.0001)     ;
(PID.TID 0000.0001) pickupStrictlyMatch= /* stop if pickup do not strictly match */
(PID.TID 0000.0001)                   T
(PID.TID 0000.0001)     ;
(PID.TID 0000.0001) nIter0   =   /* Run starting timestep number */
(PID.TID 0000.0001)                       0
(PID.TID 0000.0001)     ;
(PID.TID 0000.0001) nTimeSteps = /* Number of timesteps */
(PID.TID 0000.0001)                       4
(PID.TID 0000.0001)     ;
(PID.TID 0000.0001) nEndIter =   /* Run ending timestep number */
(PID.TID 0000.0001)                       4
(PID.TID 0000.0001)     ;
(PID.TID 0000.0001) baseTime =   /* Model base time ( s ) */
(PID.TID 0000.0001)                 0.000000000000000E+00
(PID.TID 0000.0001)     ;
(PID.TID 0000.0001) startTime =  /* Run start time ( s ) */
(PID.TID 0000.0001)                 0.000000000000000E+00
(PID.TID 0000.0001)     ;
(PID.TID 0000.0001) endTime  =   /* Integration ending time ( s ) */
(PID.TID 0000.0001)                 4.320000000000000E+04
(PID.TID 0000.0001)     ;
(PID.TID 0000.0001) pChkPtFreq = /* Permanent restart/pickup file interval ( s ) */
(PID.TID 0000.0001)                 3.110400000000000E+07
(PID.TID 0000.0001)     ;
(PID.TID 0000.0001) chkPtFreq  = /* Rolling restart/pickup file interval ( s ) */
(PID.TID 0000.0001)                 3.110400000000000E+07
(PID.TID 0000.0001)     ;
(PID.TID 0000.0001) pickup_write_mdsio =   /* Model IO flag. */
(PID.TID 0000.0001)                   T
(PID.TID 0000.0001)     ;
(PID.TID 0000.0001) pickup_read_mdsio =   /* Model IO flag. */
(PID.TID 0000.0001)                   T
(PID.TID 0000.0001)     ;
(PID.TID 0000.0001) pickup_write_mnc =   /* Model IO flag. */
(PID.TID 0000.0001)                   F
(PID.TID 0000.0001)     ;
(PID.TID 0000.0001) pickup_read_mnc =   /* Model IO flag. */
(PID.TID 0000.0001)                   F
(PID.TID 0000.0001)     ;
(PID.TID 0000.0001) pickup_write_immed =   /* Model IO flag. */
(PID.TID 0000.0001)                   F
(PID.TID 0000.0001)     ;
(PID.TID 0000.0001) writePickupAtEnd =   /* Model IO flag. */
(PID.TID 0000.0001)                   T
(PID.TID 0000.0001)     ;
(PID.TID 0000.0001) dumpFreq =   /* Model state write out interval ( s ). */
(PID.TID 0000.0001)                 3.110400000000000E+07
(PID.TID 0000.0001)     ;
(PID.TID 0000.0001) dumpInitAndLast= /* write out Initial & Last iter. model state */
(PID.TID 0000.0001)                   T
(PID.TID 0000.0001)     ;
(PID.TID 0000.0001) snapshot_mdsio =   /* Model IO flag. */
(PID.TID 0000.0001)                   F
(PID.TID 0000.0001)     ;
(PID.TID 0000.0001) snapshot_mnc =   /* Model IO flag. */
(PID.TID 0000.0001)                   T
(PID.TID 0000.0001)     ;
(PID.TID 0000.0001) monitorFreq =   /* Monitor output interval ( s ). */
(PID.TID 0000.0001)                 1.000000000000000E+00
(PID.TID 0000.0001)     ;
(PID.TID 0000.0001) monitorSelect = /* select group of variables to monitor */
(PID.TID 0000.0001)                       3
(PID.TID 0000.0001)     ;
(PID.TID 0000.0001) monitor_stdio =   /* Model IO flag. */
(PID.TID 0000.0001)                   T
(PID.TID 0000.0001)     ;
(PID.TID 0000.0001) monitor_mnc =   /* Model IO flag. */
(PID.TID 0000.0001)                   F
(PID.TID 0000.0001)     ;
(PID.TID 0000.0001) externForcingPeriod =   /* forcing period (s) */
(PID.TID 0000.0001)                 2.592000000000000E+06
(PID.TID 0000.0001)     ;
(PID.TID 0000.0001) externForcingCycle =   /* period of the cyle (s). */
(PID.TID 0000.0001)                 3.110400000000000E+07
(PID.TID 0000.0001)     ;
(PID.TID 0000.0001) tauThetaClimRelax =   /* relaxation time scale (s) */
(PID.TID 0000.0001)                 0.000000000000000E+00
(PID.TID 0000.0001)     ;
(PID.TID 0000.0001) tauSaltClimRelax =   /* relaxation time scale (s) */
(PID.TID 0000.0001)                 0.000000000000000E+00
(PID.TID 0000.0001)     ;
(PID.TID 0000.0001) latBandClimRelax =   /* max. Lat. where relaxation */
(PID.TID 0000.0001)                 1.800000000000000E+02
(PID.TID 0000.0001)     ;
(PID.TID 0000.0001) //
(PID.TID 0000.0001) // Gridding paramters ( PARM04 in namelist )
(PID.TID 0000.0001) //
(PID.TID 0000.0001) usingCartesianGrid = /* Cartesian coordinates flag ( True/False ) */
(PID.TID 0000.0001)                   F
(PID.TID 0000.0001)     ;
(PID.TID 0000.0001) usingCylindricalGrid = /* Cylindrical coordinates flag ( True/False ) */
(PID.TID 0000.0001)                   F
(PID.TID 0000.0001)     ;
(PID.TID 0000.0001) usingSphericalPolarGrid = /* Spherical coordinates flag ( True/False ) */
(PID.TID 0000.0001)                   T
(PID.TID 0000.0001)     ;
(PID.TID 0000.0001) usingCurvilinearGrid = /* Curvilinear coordinates flag ( True/False ) */
(PID.TID 0000.0001)                   F
(PID.TID 0000.0001)     ;
(PID.TID 0000.0001) selectSigmaCoord = /* Hybrid-Sigma Vert. Coordinate option */
(PID.TID 0000.0001)                       0
(PID.TID 0000.0001)     ;
(PID.TID 0000.0001) Ro_SeaLevel = /* r(1) ( units of r ==  m ) */
(PID.TID 0000.0001)                 0.000000000000000E+00
(PID.TID 0000.0001)     ;
(PID.TID 0000.0001) rSigmaBnd = /* r/sigma transition ( units of r ==  m ) */
(PID.TID 0000.0001)                 1.234567000000000E+05
(PID.TID 0000.0001)     ;
(PID.TID 0000.0001) rkSign =   /* index orientation relative to vertical coordinate */
(PID.TID 0000.0001)                -1.000000000000000E+00
(PID.TID 0000.0001)     ;
(PID.TID 0000.0001) gravitySign = /* gravity orientation relative to vertical coordinate */
(PID.TID 0000.0001)                -1.000000000000000E+00
(PID.TID 0000.0001)     ;
(PID.TID 0000.0001) mass2rUnit = /* convert mass per unit area [kg/m2] to r-units [m] */
(PID.TID 0000.0001)                 1.000200040008002E-03
(PID.TID 0000.0001)     ;
(PID.TID 0000.0001) rUnit2mass = /* convert r-units [m] to mass per unit area [kg/m2] */
(PID.TID 0000.0001)                 9.998000000000000E+02
(PID.TID 0000.0001)     ;
(PID.TID 0000.0001) drC =   /* C spacing ( units of r ) */
(PID.TID 0000.0001)                 5.000000000000000E+00,      /* K =  1 */
(PID.TID 0000.0001)                 1.000000000000000E+01,      /* K =  2 */
(PID.TID 0000.0001)                 1.250000000000000E+01,      /* K =  3 */
(PID.TID 0000.0001)                 1.750000000000000E+01,      /* K =  4 */
(PID.TID 0000.0001)                 2.000000000000000E+01,      /* K =  5 */
(PID.TID 0000.0001)                 2.250000000000000E+01,      /* K =  6 */
(PID.TID 0000.0001)                 3.000000000000000E+01,      /* K =  7 */
(PID.TID 0000.0001)                 4.250000000000000E+01,      /* K =  8 */
(PID.TID 0000.0001)                 6.250000000000000E+01,      /* K =  9 */
(PID.TID 0000.0001)                 8.750000000000000E+01,      /* K = 10 */
(PID.TID 0000.0001)                 1.250000000000000E+02,      /* K = 11 */
(PID.TID 0000.0001)                 1.750000000000000E+02,      /* K = 12 */
(PID.TID 0000.0001)                 2.375000000000000E+02,      /* K = 13 */
(PID.TID 0000.0001)                 3.125000000000000E+02,      /* K = 14 */
(PID.TID 0000.0001)                 3.825000000000000E+02,      /* K = 15 */
(PID.TID 0000.0001)                 4.325000000000000E+02,      /* K = 16 */
(PID.TID 0000.0001)                 4.750000000000000E+02,      /* K = 17 */
(PID.TID 0000.0001)     6 @  5.000000000000000E+02,             /* K = 18: 23 */
(PID.TID 0000.0001)                 2.500000000000000E+02       /* K = 24 */
(PID.TID 0000.0001)     ;
(PID.TID 0000.0001) drF =   /* W spacing ( units of r ) */
(PID.TID 0000.0001)     2 @  1.000000000000000E+01,             /* K =  1:  2 */
(PID.TID 0000.0001)                 1.500000000000000E+01,      /* K =  3 */
(PID.TID 0000.0001)     2 @  2.000000000000000E+01,             /* K =  4:  5 */
(PID.TID 0000.0001)                 2.500000000000000E+01,      /* K =  6 */
(PID.TID 0000.0001)                 3.500000000000000E+01,      /* K =  7 */
(PID.TID 0000.0001)                 5.000000000000000E+01,      /* K =  8 */
(PID.TID 0000.0001)                 7.500000000000000E+01,      /* K =  9 */
(PID.TID 0000.0001)                 1.000000000000000E+02,      /* K = 10 */
(PID.TID 0000.0001)                 1.500000000000000E+02,      /* K = 11 */
(PID.TID 0000.0001)                 2.000000000000000E+02,      /* K = 12 */
(PID.TID 0000.0001)                 2.750000000000000E+02,      /* K = 13 */
(PID.TID 0000.0001)                 3.500000000000000E+02,      /* K = 14 */
(PID.TID 0000.0001)                 4.150000000000000E+02,      /* K = 15 */
(PID.TID 0000.0001)                 4.500000000000000E+02,      /* K = 16 */
(PID.TID 0000.0001)     7 @  5.000000000000000E+02              /* K = 17: 23 */
(PID.TID 0000.0001)     ;
(PID.TID 0000.0001) delX = /* U spacing ( m - cartesian, degrees - spherical ) */
(PID.TID 0000.0001)   360 @  1.000000000000000E+00              /* I =  1:360 */
(PID.TID 0000.0001)     ;
(PID.TID 0000.0001) delY = /* V spacing ( m - cartesian, degrees - spherical ) */
(PID.TID 0000.0001)   160 @  1.000000000000000E+00              /* J =  1:160 */
(PID.TID 0000.0001)     ;
(PID.TID 0000.0001) xgOrigin = /* X-axis origin of West  edge (cartesian: m, lat-lon: deg) */
(PID.TID 0000.0001)                 0.000000000000000E+00
(PID.TID 0000.0001)     ;
(PID.TID 0000.0001) ygOrigin = /* Y-axis origin of South edge (cartesian: m, lat-lon: deg) */
(PID.TID 0000.0001)                -8.000000000000000E+01
(PID.TID 0000.0001)     ;
(PID.TID 0000.0001) rSphere =  /* Radius ( ignored - cartesian, m - spherical ) */
(PID.TID 0000.0001)                 6.370000000000000E+06
(PID.TID 0000.0001)     ;
(PID.TID 0000.0001) deepAtmosphere = /* Deep/Shallow Atmosphere flag (True/False) */
(PID.TID 0000.0001)                   F
(PID.TID 0000.0001)     ;
(PID.TID 0000.0001) xC =  /* xC(:,1,:,1) : P-point X coord ( deg. or m if cartesian) */
(PID.TID 0000.0001)                 5.000000000000000E-01,      /* I =  1 */
(PID.TID 0000.0001)                 1.500000000000000E+00,      /* I =  2 */
(PID.TID 0000.0001)                 2.500000000000000E+00,      /* I =  3 */
(PID.TID 0000.0001)                 3.500000000000000E+00,      /* I =  4 */
(PID.TID 0000.0001)                 4.500000000000000E+00,      /* I =  5 */
(PID.TID 0000.0001)                 5.500000000000000E+00,      /* I =  6 */
(PID.TID 0000.0001)                 6.500000000000000E+00,      /* I =  7 */
(PID.TID 0000.0001)                 7.500000000000000E+00,      /* I =  8 */
(PID.TID 0000.0001)                 8.500000000000000E+00,      /* I =  9 */
(PID.TID 0000.0001)                 9.500000000000000E+00,      /* I = 10 */
(PID.TID 0000.0001)                 1.050000000000000E+01,      /* I = 11 */
(PID.TID 0000.0001)                 1.150000000000000E+01,      /* I = 12 */
(PID.TID 0000.0001)                 1.250000000000000E+01,      /* I = 13 */
(PID.TID 0000.0001)                 1.350000000000000E+01,      /* I = 14 */
(PID.TID 0000.0001)                 1.450000000000000E+01,      /* I = 15 */
(PID.TID 0000.0001)                 1.550000000000000E+01,      /* I = 16 */
(PID.TID 0000.0001)                 1.650000000000000E+01,      /* I = 17 */
(PID.TID 0000.0001)                 1.750000000000000E+01,      /* I = 18 */
(PID.TID 0000.0001)                 1.850000000000000E+01,      /* I = 19 */
(PID.TID 0000.0001)                 1.950000000000000E+01,      /* I = 20 */
(PID.TID 0000.0001)                 2.050000000000000E+01,      /* I = 21 */
(PID.TID 0000.0001)                 2.150000000000000E+01,      /* I = 22 */
(PID.TID 0000.0001)                 2.250000000000000E+01,      /* I = 23 */
(PID.TID 0000.0001)                 2.350000000000000E+01,      /* I = 24 */
(PID.TID 0000.0001)                 2.450000000000000E+01,      /* I = 25 */
(PID.TID 0000.0001)                 2.550000000000000E+01,      /* I = 26 */
(PID.TID 0000.0001)                 2.650000000000000E+01,      /* I = 27 */
(PID.TID 0000.0001)                 2.750000000000000E+01,      /* I = 28 */
(PID.TID 0000.0001)                 2.850000000000000E+01,      /* I = 29 */
(PID.TID 0000.0001)                 2.950000000000000E+01,      /* I = 30 */
(PID.TID 0000.0001)                 3.050000000000000E+01,      /* I = 31 */
(PID.TID 0000.0001)                 3.150000000000000E+01,      /* I = 32 */
(PID.TID 0000.0001)                 3.250000000000000E+01,      /* I = 33 */
(PID.TID 0000.0001)                 3.350000000000000E+01,      /* I = 34 */
(PID.TID 0000.0001)                 3.450000000000000E+01,      /* I = 35 */
(PID.TID 0000.0001)                 3.550000000000000E+01,      /* I = 36 */
(PID.TID 0000.0001)                 3.650000000000000E+01,      /* I = 37 */
(PID.TID 0000.0001)                 3.750000000000000E+01,      /* I = 38 */
(PID.TID 0000.0001)                 3.850000000000000E+01,      /* I = 39 */
(PID.TID 0000.0001)                 3.950000000000000E+01,      /* I = 40 */
(PID.TID 0000.0001)                 4.050000000000000E+01,      /* I = 41 */
(PID.TID 0000.0001)                 4.150000000000000E+01,      /* I = 42 */
(PID.TID 0000.0001)                 4.250000000000000E+01,      /* I = 43 */
(PID.TID 0000.0001)                 4.350000000000000E+01,      /* I = 44 */
(PID.TID 0000.0001)                 4.450000000000000E+01       /* I = 45 */
(PID.TID 0000.0001)     ;
(PID.TID 0000.0001) yC =  /* yC(1,:,1,:) : P-point Y coord ( deg. or m if cartesian) */
(PID.TID 0000.0001)                -7.950000000000000E+01,      /* J =  1 */
(PID.TID 0000.0001)                -7.850000000000000E+01,      /* J =  2 */
(PID.TID 0000.0001)                -7.750000000000000E+01,      /* J =  3 */
(PID.TID 0000.0001)                -7.650000000000000E+01,      /* J =  4 */
(PID.TID 0000.0001)                -7.550000000000000E+01,      /* J =  5 */
(PID.TID 0000.0001)                -7.450000000000000E+01,      /* J =  6 */
(PID.TID 0000.0001)                -7.350000000000000E+01,      /* J =  7 */
(PID.TID 0000.0001)                -7.250000000000000E+01,      /* J =  8 */
(PID.TID 0000.0001)                -7.150000000000000E+01,      /* J =  9 */
(PID.TID 0000.0001)                -7.050000000000000E+01,      /* J = 10 */
(PID.TID 0000.0001)                -6.950000000000000E+01,      /* J = 11 */
(PID.TID 0000.0001)                -6.850000000000000E+01,      /* J = 12 */
(PID.TID 0000.0001)                -6.750000000000000E+01,      /* J = 13 */
(PID.TID 0000.0001)                -6.650000000000000E+01,      /* J = 14 */
(PID.TID 0000.0001)                -6.550000000000000E+01,      /* J = 15 */
(PID.TID 0000.0001)                -6.450000000000000E+01,      /* J = 16 */
(PID.TID 0000.0001)                -6.350000000000000E+01,      /* J = 17 */
(PID.TID 0000.0001)                -6.250000000000000E+01,      /* J = 18 */
(PID.TID 0000.0001)                -6.150000000000000E+01,      /* J = 19 */
(PID.TID 0000.0001)                -6.050000000000000E+01,      /* J = 20 */
(PID.TID 0000.0001)                -5.950000000000000E+01,      /* J = 21 */
(PID.TID 0000.0001)                -5.850000000000000E+01,      /* J = 22 */
(PID.TID 0000.0001)                -5.750000000000000E+01,      /* J = 23 */
(PID.TID 0000.0001)                -5.650000000000000E+01,      /* J = 24 */
(PID.TID 0000.0001)                -5.550000000000000E+01,      /* J = 25 */
(PID.TID 0000.0001)                -5.450000000000000E+01,      /* J = 26 */
(PID.TID 0000.0001)                -5.350000000000000E+01,      /* J = 27 */
(PID.TID 0000.0001)                -5.250000000000000E+01,      /* J = 28 */
(PID.TID 0000.0001)                -5.150000000000000E+01,      /* J = 29 */
(PID.TID 0000.0001)                -5.050000000000000E+01,      /* J = 30 */
(PID.TID 0000.0001)                -4.950000000000000E+01,      /* J = 31 */
(PID.TID 0000.0001)                -4.850000000000000E+01,      /* J = 32 */
(PID.TID 0000.0001)                -4.750000000000000E+01,      /* J = 33 */
(PID.TID 0000.0001)                -4.650000000000000E+01,      /* J = 34 */
(PID.TID 0000.0001)                -4.550000000000000E+01,      /* J = 35 */
(PID.TID 0000.0001)                -4.450000000000000E+01,      /* J = 36 */
(PID.TID 0000.0001)                -4.350000000000000E+01,      /* J = 37 */
(PID.TID 0000.0001)                -4.250000000000000E+01,      /* J = 38 */
(PID.TID 0000.0001)                -4.150000000000000E+01,      /* J = 39 */
(PID.TID 0000.0001)                -4.050000000000000E+01       /* J = 40 */
(PID.TID 0000.0001)     ;
(PID.TID 0000.0001) rcoord = /* P-point R coordinate (  units of r ) */
(PID.TID 0000.0001)                -5.000000000000000E+00,      /* K =  1 */
(PID.TID 0000.0001)                -1.500000000000000E+01,      /* K =  2 */
(PID.TID 0000.0001)                -2.750000000000000E+01,      /* K =  3 */
(PID.TID 0000.0001)                -4.500000000000000E+01,      /* K =  4 */
(PID.TID 0000.0001)                -6.500000000000000E+01,      /* K =  5 */
(PID.TID 0000.0001)                -8.750000000000000E+01,      /* K =  6 */
(PID.TID 0000.0001)                -1.175000000000000E+02,      /* K =  7 */
(PID.TID 0000.0001)                -1.600000000000000E+02,      /* K =  8 */
(PID.TID 0000.0001)                -2.225000000000000E+02,      /* K =  9 */
(PID.TID 0000.0001)                -3.100000000000000E+02,      /* K = 10 */
(PID.TID 0000.0001)                -4.350000000000000E+02,      /* K = 11 */
(PID.TID 0000.0001)                -6.100000000000000E+02,      /* K = 12 */
(PID.TID 0000.0001)                -8.475000000000000E+02,      /* K = 13 */
(PID.TID 0000.0001)                -1.160000000000000E+03,      /* K = 14 */
(PID.TID 0000.0001)                -1.542500000000000E+03,      /* K = 15 */
(PID.TID 0000.0001)                -1.975000000000000E+03,      /* K = 16 */
(PID.TID 0000.0001)                -2.450000000000000E+03,      /* K = 17 */
(PID.TID 0000.0001)                -2.950000000000000E+03,      /* K = 18 */
(PID.TID 0000.0001)                -3.450000000000000E+03,      /* K = 19 */
(PID.TID 0000.0001)                -3.950000000000000E+03,      /* K = 20 */
(PID.TID 0000.0001)                -4.450000000000000E+03,      /* K = 21 */
(PID.TID 0000.0001)                -4.950000000000000E+03,      /* K = 22 */
(PID.TID 0000.0001)                -5.450000000000000E+03       /* K = 23 */
(PID.TID 0000.0001)     ;
(PID.TID 0000.0001) rF =   /* W-Interf. R coordinate (  units of r ) */
(PID.TID 0000.0001)                 0.000000000000000E+00,      /* K =  1 */
(PID.TID 0000.0001)                -1.000000000000000E+01,      /* K =  2 */
(PID.TID 0000.0001)                -2.000000000000000E+01,      /* K =  3 */
(PID.TID 0000.0001)                -3.500000000000000E+01,      /* K =  4 */
(PID.TID 0000.0001)                -5.500000000000000E+01,      /* K =  5 */
(PID.TID 0000.0001)                -7.500000000000000E+01,      /* K =  6 */
(PID.TID 0000.0001)                -1.000000000000000E+02,      /* K =  7 */
(PID.TID 0000.0001)                -1.350000000000000E+02,      /* K =  8 */
(PID.TID 0000.0001)                -1.850000000000000E+02,      /* K =  9 */
(PID.TID 0000.0001)                -2.600000000000000E+02,      /* K = 10 */
(PID.TID 0000.0001)                -3.600000000000000E+02,      /* K = 11 */
(PID.TID 0000.0001)                -5.100000000000000E+02,      /* K = 12 */
(PID.TID 0000.0001)                -7.100000000000000E+02,      /* K = 13 */
(PID.TID 0000.0001)                -9.850000000000000E+02,      /* K = 14 */
(PID.TID 0000.0001)                -1.335000000000000E+03,      /* K = 15 */
(PID.TID 0000.0001)                -1.750000000000000E+03,      /* K = 16 */
(PID.TID 0000.0001)                -2.200000000000000E+03,      /* K = 17 */
(PID.TID 0000.0001)                -2.700000000000000E+03,      /* K = 18 */
(PID.TID 0000.0001)                -3.200000000000000E+03,      /* K = 19 */
(PID.TID 0000.0001)                -3.700000000000000E+03,      /* K = 20 */
(PID.TID 0000.0001)                -4.200000000000000E+03,      /* K = 21 */
(PID.TID 0000.0001)                -4.700000000000000E+03,      /* K = 22 */
(PID.TID 0000.0001)                -5.200000000000000E+03,      /* K = 23 */
(PID.TID 0000.0001)                -5.700000000000000E+03       /* K = 24 */
(PID.TID 0000.0001)     ;
(PID.TID 0000.0001) deepFacC = /* deep-model grid factor @ cell-Center (-) */
(PID.TID 0000.0001)    23 @  1.000000000000000E+00              /* K =  1: 23 */
(PID.TID 0000.0001)     ;
(PID.TID 0000.0001) deepFacF = /* deep-model grid factor @ W-Interface (-) */
(PID.TID 0000.0001)    24 @  1.000000000000000E+00              /* K =  1: 24 */
(PID.TID 0000.0001)     ;
(PID.TID 0000.0001) rVel2wUnit = /* convert units: rVel -> wSpeed (=1 if z-coord)*/
(PID.TID 0000.0001)    24 @  1.000000000000000E+00              /* K =  1: 24 */
(PID.TID 0000.0001)     ;
(PID.TID 0000.0001) wUnit2rVel = /* convert units: wSpeed -> rVel (=1 if z-coord)*/
(PID.TID 0000.0001)    24 @  1.000000000000000E+00              /* K =  1: 24 */
(PID.TID 0000.0001)     ;
(PID.TID 0000.0001) dBdrRef = /* Vertical grad. of reference buoyancy [(m/s/r)^2] */
(PID.TID 0000.0001)    23 @  0.000000000000000E+00              /* K =  1: 23 */
(PID.TID 0000.0001)     ;
(PID.TID 0000.0001) rotateGrid = /* use rotated grid ( True/False ) */
(PID.TID 0000.0001)                   F
(PID.TID 0000.0001)     ;
(PID.TID 0000.0001) phiEuler = /* Euler angle, rotation about original z-coordinate [rad] */
(PID.TID 0000.0001)                 0.000000000000000E+00
(PID.TID 0000.0001)     ;
(PID.TID 0000.0001) thetaEuler = /* Euler angle, rotation about new x-coordinate [rad] */
(PID.TID 0000.0001)                 0.000000000000000E+00
(PID.TID 0000.0001)     ;
(PID.TID 0000.0001) psiEuler = /* Euler angle, rotation about new z-coordinate [rad] */
(PID.TID 0000.0001)                 0.000000000000000E+00
(PID.TID 0000.0001)     ;
(PID.TID 0000.0001) dxF =  /* dxF(:,1,:,1) ( units: m ) */
(PID.TID 0000.0001)    45 @  2.026048527919801E+04              /* I =  1: 45 */
(PID.TID 0000.0001)     ;
(PID.TID 0000.0001) dxF =  /* dxF(1,:,1,:) ( units: m ) */
(PID.TID 0000.0001)                 2.026048527919801E+04,      /* J =  1 */
(PID.TID 0000.0001)                 2.216522321591896E+04,      /* J =  2 */
(PID.TID 0000.0001)                 2.406320941092900E+04,      /* J =  3 */
(PID.TID 0000.0001)                 2.595386571924693E+04,      /* J =  4 */
(PID.TID 0000.0001)                 2.783661622864603E+04,      /* J =  5 */
(PID.TID 0000.0001)                 2.971088743508253E+04,      /* J =  6 */
(PID.TID 0000.0001)                 3.157610841739049E+04,      /* J =  7 */
(PID.TID 0000.0001)                 3.343171101118984E+04,      /* J =  8 */
(PID.TID 0000.0001)                 3.527712998195495E+04,      /* J =  9 */
(PID.TID 0000.0001)                 3.711180319719033E+04,      /* J = 10 */
(PID.TID 0000.0001)                 3.893517179766173E+04,      /* J = 11 */
(PID.TID 0000.0001)                 4.074668036763009E+04,      /* J = 12 */
(PID.TID 0000.0001)                 4.254577710403652E+04,      /* J = 13 */
(PID.TID 0000.0001)                 4.433191398458684E+04,      /* J = 14 */
(PID.TID 0000.0001)                 4.610454693468459E+04,      /* J = 15 */
(PID.TID 0000.0001)                 4.786313599316124E+04,      /* J = 16 */
(PID.TID 0000.0001)                 4.960714547675374E+04,      /* J = 17 */
(PID.TID 0000.0001)                 5.133604414327884E+04,      /* J = 18 */
(PID.TID 0000.0001)                 5.304930535345447E+04,      /* J = 19 */
(PID.TID 0000.0001)                 5.474640723131929E+04,      /* J = 20 */
(PID.TID 0000.0001)                 5.642683282320108E+04,      /* J = 21 */
(PID.TID 0000.0001)                 5.809007025518592E+04,      /* J = 22 */
(PID.TID 0000.0001)                 5.973561288903989E+04,      /* J = 23 */
(PID.TID 0000.0001)                 6.136295947653597E+04,      /* J = 24 */
(PID.TID 0000.0001)                 6.297161431213917E+04,      /* J = 25 */
(PID.TID 0000.0001)                 6.456108738400316E+04,      /* J = 26 */
(PID.TID 0000.0001)                 6.613089452323271E+04,      /* J = 27 */
(PID.TID 0000.0001)                 6.768055755136610E+04,      /* J = 28 */
(PID.TID 0000.0001)                 6.920960442603305E+04,      /* J = 29 */
(PID.TID 0000.0001)                 7.071756938474336E+04,      /* J = 30 */
(PID.TID 0000.0001)                 7.220399308676260E+04,      /* J = 31 */
(PID.TID 0000.0001)                 7.366842275303182E+04,      /* J = 32 */
(PID.TID 0000.0001)                 7.511041230408842E+04,      /* J = 33 */
(PID.TID 0000.0001)                 7.652952249594631E+04,      /* J = 34 */
(PID.TID 0000.0001)                 7.792532105389379E+04,      /* J = 35 */
(PID.TID 0000.0001)                 7.929738280416872E+04,      /* J = 36 */
(PID.TID 0000.0001)                 8.064528980347051E+04,      /* J = 37 */
(PID.TID 0000.0001)                 8.196863146626968E+04,      /* J = 38 */
(PID.TID 0000.0001)                 8.326700468987630E+04,      /* J = 39 */
(PID.TID 0000.0001)                 8.454001397722875E+04       /* J = 40 */
(PID.TID 0000.0001)     ;
(PID.TID 0000.0001) dyF =  /* dyF(:,1,:,1) ( units: m ) */
(PID.TID 0000.0001)    45 @  1.111774733520388E+05              /* I =  1: 45 */
(PID.TID 0000.0001)     ;
(PID.TID 0000.0001) dyF =  /* dyF(1,:,1,:) ( units: m ) */
(PID.TID 0000.0001)    40 @  1.111774733520388E+05              /* J =  1: 40 */
(PID.TID 0000.0001)     ;
(PID.TID 0000.0001) dxG =  /* dxG(:,1,:,1) ( units: m ) */
(PID.TID 0000.0001)    45 @  1.930576564519525E+04              /* I =  1: 45 */
(PID.TID 0000.0001)     ;
(PID.TID 0000.0001) dxG =  /* dxG(1,:,1,:) ( units: m ) */
(PID.TID 0000.0001)                 1.930576564519525E+04,      /* J =  1 */
(PID.TID 0000.0001)                 2.121366199880512E+04,      /* J =  2 */
(PID.TID 0000.0001)                 2.311509646546878E+04,      /* J =  3 */
(PID.TID 0000.0001)                 2.500948984982807E+04,      /* J =  4 */
(PID.TID 0000.0001)                 2.689626510130676E+04,      /* J =  5 */
(PID.TID 0000.0001)                 2.877484748988563E+04,      /* J =  6 */
(PID.TID 0000.0001)                 3.064466478117086E+04,      /* J =  7 */
(PID.TID 0000.0001)                 3.250514741070222E+04,      /* J =  8 */
(PID.TID 0000.0001)                 3.435572865744784E+04,      /* J =  9 */
(PID.TID 0000.0001)                 3.619584481643300E+04,      /* J = 10 */
(PID.TID 0000.0001)                 3.802493537045003E+04,      /* J = 11 */
(PID.TID 0000.0001)                 3.984244316079742E+04,      /* J = 12 */
(PID.TID 0000.0001)                 4.164781455699558E+04,      /* J = 13 */
(PID.TID 0000.0001)                 4.344049962542827E+04,      /* J = 14 */
(PID.TID 0000.0001)                 4.521995229685750E+04,      /* J = 15 */
(PID.TID 0000.0001)                 4.698563053276157E+04,      /* J = 16 */
(PID.TID 0000.0001)                 4.873699649044534E+04,      /* J = 17 */
(PID.TID 0000.0001)                 5.047351668687224E+04,      /* J = 18 */
(PID.TID 0000.0001)                 5.219466216116839E+04,      /* J = 19 */
(PID.TID 0000.0001)                 5.389990863574919E+04,      /* J = 20 */
(PID.TID 0000.0001)                 5.558873667601941E+04,      /* J = 21 */
(PID.TID 0000.0001)                 5.726063184859791E+04,      /* J = 22 */
(PID.TID 0000.0001)                 5.891508487801914E+04,      /* J = 23 */
(PID.TID 0000.0001)                 6.055159180186330E+04,      /* J = 24 */
(PID.TID 0000.0001)                 6.216965412426815E+04,      /* J = 25 */
(PID.TID 0000.0001)                 6.376877896777581E+04,      /* J = 26 */
(PID.TID 0000.0001)                 6.534847922346782E+04,      /* J = 27 */
(PID.TID 0000.0001)                 6.690827369934347E+04,      /* J = 28 */
(PID.TID 0000.0001)                 6.844768726689526E+04,      /* J = 29 */
(PID.TID 0000.0001)                 6.996625100583794E+04,      /* J = 30 */
(PID.TID 0000.0001)                 7.146350234694594E+04,      /* J = 31 */
(PID.TID 0000.0001)                 7.293898521295657E+04,      /* J = 32 */
(PID.TID 0000.0001)                 7.439225015749552E+04,      /* J = 33 */
(PID.TID 0000.0001)                 7.582285450198258E+04,      /* J = 34 */
(PID.TID 0000.0001)                 7.723036247047585E+04,      /* J = 35 */
(PID.TID 0000.0001)                 7.861434532241331E+04,      /* J = 36 */
(PID.TID 0000.0001)                 7.997438148321130E+04,      /* J = 37 */
(PID.TID 0000.0001)                 8.131005667268025E+04,      /* J = 38 */
(PID.TID 0000.0001)                 8.262096403121852E+04,      /* J = 39 */
(PID.TID 0000.0001)                 8.390670424374563E+04       /* J = 40 */
(PID.TID 0000.0001)     ;
(PID.TID 0000.0001) dyG =  /* dyG(:,1,:,1) ( units: m ) */
(PID.TID 0000.0001)    45 @  1.111774733520388E+05              /* I =  1: 45 */
(PID.TID 0000.0001)     ;
(PID.TID 0000.0001) dyG =  /* dyG(1,:,1,:) ( units: m ) */
(PID.TID 0000.0001)    40 @  1.111774733520388E+05              /* J =  1: 40 */
(PID.TID 0000.0001)     ;
(PID.TID 0000.0001) dxC =  /* dxC(:,1,:,1) ( units: m ) */
(PID.TID 0000.0001)    45 @  2.026048527919801E+04              /* I =  1: 45 */
(PID.TID 0000.0001)     ;
(PID.TID 0000.0001) dxC =  /* dxC(1,:,1,:) ( units: m ) */
(PID.TID 0000.0001)                 2.026048527919801E+04,      /* J =  1 */
(PID.TID 0000.0001)                 2.216522321591896E+04,      /* J =  2 */
(PID.TID 0000.0001)                 2.406320941092900E+04,      /* J =  3 */
(PID.TID 0000.0001)                 2.595386571924693E+04,      /* J =  4 */
(PID.TID 0000.0001)                 2.783661622864603E+04,      /* J =  5 */
(PID.TID 0000.0001)                 2.971088743508253E+04,      /* J =  6 */
(PID.TID 0000.0001)                 3.157610841739049E+04,      /* J =  7 */
(PID.TID 0000.0001)                 3.343171101118984E+04,      /* J =  8 */
(PID.TID 0000.0001)                 3.527712998195495E+04,      /* J =  9 */
(PID.TID 0000.0001)                 3.711180319719033E+04,      /* J = 10 */
(PID.TID 0000.0001)                 3.893517179766173E+04,      /* J = 11 */
(PID.TID 0000.0001)                 4.074668036763009E+04,      /* J = 12 */
(PID.TID 0000.0001)                 4.254577710403652E+04,      /* J = 13 */
(PID.TID 0000.0001)                 4.433191398458684E+04,      /* J = 14 */
(PID.TID 0000.0001)                 4.610454693468459E+04,      /* J = 15 */
(PID.TID 0000.0001)                 4.786313599316124E+04,      /* J = 16 */
(PID.TID 0000.0001)                 4.960714547675374E+04,      /* J = 17 */
(PID.TID 0000.0001)                 5.133604414327884E+04,      /* J = 18 */
(PID.TID 0000.0001)                 5.304930535345447E+04,      /* J = 19 */
(PID.TID 0000.0001)                 5.474640723131929E+04,      /* J = 20 */
(PID.TID 0000.0001)                 5.642683282320108E+04,      /* J = 21 */
(PID.TID 0000.0001)                 5.809007025518592E+04,      /* J = 22 */
(PID.TID 0000.0001)                 5.973561288903989E+04,      /* J = 23 */
(PID.TID 0000.0001)                 6.136295947653597E+04,      /* J = 24 */
(PID.TID 0000.0001)                 6.297161431213917E+04,      /* J = 25 */
(PID.TID 0000.0001)                 6.456108738400316E+04,      /* J = 26 */
(PID.TID 0000.0001)                 6.613089452323271E+04,      /* J = 27 */
(PID.TID 0000.0001)                 6.768055755136610E+04,      /* J = 28 */
(PID.TID 0000.0001)                 6.920960442603305E+04,      /* J = 29 */
(PID.TID 0000.0001)                 7.071756938474336E+04,      /* J = 30 */
(PID.TID 0000.0001)                 7.220399308676260E+04,      /* J = 31 */
(PID.TID 0000.0001)                 7.366842275303182E+04,      /* J = 32 */
(PID.TID 0000.0001)                 7.511041230408842E+04,      /* J = 33 */
(PID.TID 0000.0001)                 7.652952249594631E+04,      /* J = 34 */
(PID.TID 0000.0001)                 7.792532105389379E+04,      /* J = 35 */
(PID.TID 0000.0001)                 7.929738280416872E+04,      /* J = 36 */
(PID.TID 0000.0001)                 8.064528980347051E+04,      /* J = 37 */
(PID.TID 0000.0001)                 8.196863146626968E+04,      /* J = 38 */
(PID.TID 0000.0001)                 8.326700468987630E+04,      /* J = 39 */
(PID.TID 0000.0001)                 8.454001397722875E+04       /* J = 40 */
(PID.TID 0000.0001)     ;
(PID.TID 0000.0001) dyC =  /* dyC(:,1,:,1) ( units: m ) */
(PID.TID 0000.0001)    45 @  1.111774733520388E+05              /* I =  1: 45 */
(PID.TID 0000.0001)     ;
(PID.TID 0000.0001) dyC =  /* dyC(1,:,1,:) ( units: m ) */
(PID.TID 0000.0001)    40 @  1.111774733520388E+05              /* J =  1: 40 */
(PID.TID 0000.0001)     ;
(PID.TID 0000.0001) dxV =  /* dxV(:,1,:,1) ( units: m ) */
(PID.TID 0000.0001)    45 @  1.930576564519525E+04              /* I =  1: 45 */
(PID.TID 0000.0001)     ;
(PID.TID 0000.0001) dxV =  /* dxV(1,:,1,:) ( units: m ) */
(PID.TID 0000.0001)                 1.930576564519525E+04,      /* J =  1 */
(PID.TID 0000.0001)                 2.121366199880512E+04,      /* J =  2 */
(PID.TID 0000.0001)                 2.311509646546878E+04,      /* J =  3 */
(PID.TID 0000.0001)                 2.500948984982807E+04,      /* J =  4 */
(PID.TID 0000.0001)                 2.689626510130676E+04,      /* J =  5 */
(PID.TID 0000.0001)                 2.877484748988563E+04,      /* J =  6 */
(PID.TID 0000.0001)                 3.064466478117086E+04,      /* J =  7 */
(PID.TID 0000.0001)                 3.250514741070222E+04,      /* J =  8 */
(PID.TID 0000.0001)                 3.435572865744784E+04,      /* J =  9 */
(PID.TID 0000.0001)                 3.619584481643300E+04,      /* J = 10 */
(PID.TID 0000.0001)                 3.802493537045003E+04,      /* J = 11 */
(PID.TID 0000.0001)                 3.984244316079742E+04,      /* J = 12 */
(PID.TID 0000.0001)                 4.164781455699558E+04,      /* J = 13 */
(PID.TID 0000.0001)                 4.344049962542827E+04,      /* J = 14 */
(PID.TID 0000.0001)                 4.521995229685750E+04,      /* J = 15 */
(PID.TID 0000.0001)                 4.698563053276157E+04,      /* J = 16 */
(PID.TID 0000.0001)                 4.873699649044534E+04,      /* J = 17 */
(PID.TID 0000.0001)                 5.047351668687224E+04,      /* J = 18 */
(PID.TID 0000.0001)                 5.219466216116839E+04,      /* J = 19 */
(PID.TID 0000.0001)                 5.389990863574919E+04,      /* J = 20 */
(PID.TID 0000.0001)                 5.558873667601941E+04,      /* J = 21 */
(PID.TID 0000.0001)                 5.726063184859791E+04,      /* J = 22 */
(PID.TID 0000.0001)                 5.891508487801914E+04,      /* J = 23 */
(PID.TID 0000.0001)                 6.055159180186330E+04,      /* J = 24 */
(PID.TID 0000.0001)                 6.216965412426815E+04,      /* J = 25 */
(PID.TID 0000.0001)                 6.376877896777581E+04,      /* J = 26 */
(PID.TID 0000.0001)                 6.534847922346782E+04,      /* J = 27 */
(PID.TID 0000.0001)                 6.690827369934347E+04,      /* J = 28 */
(PID.TID 0000.0001)                 6.844768726689526E+04,      /* J = 29 */
(PID.TID 0000.0001)                 6.996625100583794E+04,      /* J = 30 */
(PID.TID 0000.0001)                 7.146350234694594E+04,      /* J = 31 */
(PID.TID 0000.0001)                 7.293898521295657E+04,      /* J = 32 */
(PID.TID 0000.0001)                 7.439225015749552E+04,      /* J = 33 */
(PID.TID 0000.0001)                 7.582285450198258E+04,      /* J = 34 */
(PID.TID 0000.0001)                 7.723036247047585E+04,      /* J = 35 */
(PID.TID 0000.0001)                 7.861434532241331E+04,      /* J = 36 */
(PID.TID 0000.0001)                 7.997438148321130E+04,      /* J = 37 */
(PID.TID 0000.0001)                 8.131005667268025E+04,      /* J = 38 */
(PID.TID 0000.0001)                 8.262096403121852E+04,      /* J = 39 */
(PID.TID 0000.0001)                 8.390670424374563E+04       /* J = 40 */
(PID.TID 0000.0001)     ;
(PID.TID 0000.0001) dyU =  /* dyU(:,1,:,1) ( units: m ) */
(PID.TID 0000.0001)    45 @  1.111774733520388E+05              /* I =  1: 45 */
(PID.TID 0000.0001)     ;
(PID.TID 0000.0001) dyU =  /* dyU(1,:,1,:) ( units: m ) */
(PID.TID 0000.0001)    40 @  1.111774733520388E+05              /* J =  1: 40 */
(PID.TID 0000.0001)     ;
(PID.TID 0000.0001) rA  =  /* rA (:,1,:,1) ( units: m^2 ) */
(PID.TID 0000.0001)    45 @  2.252480972600775E+09              /* I =  1: 45 */
(PID.TID 0000.0001)     ;
(PID.TID 0000.0001) rA  =  /* rA (1,:,1,:) ( units: m^2 ) */
(PID.TID 0000.0001)                 2.252480972600775E+09,      /* J =  1 */
(PID.TID 0000.0001)                 2.464242236022337E+09,      /* J =  2 */
(PID.TID 0000.0001)                 2.675252867386942E+09,      /* J =  3 */
(PID.TID 0000.0001)                 2.885448590812564E+09,      /* J =  4 */
(PID.TID 0000.0001)                 3.094765378645360E+09,      /* J =  5 */
(PID.TID 0000.0001)                 3.303139470964198E+09,      /* J =  6 */
(PID.TID 0000.0001)                 3.510507395001996E+09,      /* J =  7 */
(PID.TID 0000.0001)                 3.716805984480110E+09,      /* J =  8 */
(PID.TID 0000.0001)                 3.921972398849929E+09,      /* J =  9 */
(PID.TID 0000.0001)                 4.125944142434001E+09,      /* J = 10 */
(PID.TID 0000.0001)                 4.328659083463362E+09,      /* J = 11 */
(PID.TID 0000.0001)                 4.530055473003297E+09,      /* J = 12 */
(PID.TID 0000.0001)                 4.730071963762505E+09,      /* J = 13 */
(PID.TID 0000.0001)                 4.928647628780381E+09,      /* J = 14 */
(PID.TID 0000.0001)                 5.125721979985523E+09,      /* J = 15 */
(PID.TID 0000.0001)                 5.321234986621584E+09,      /* J = 16 */
(PID.TID 0000.0001)                 5.515127093532944E+09,      /* J = 17 */
(PID.TID 0000.0001)                 5.707339239305150E+09,      /* J = 18 */
(PID.TID 0000.0001)                 5.897812874256923E+09,      /* J = 19 */
(PID.TID 0000.0001)                 6.086489978273794E+09,      /* J = 20 */
(PID.TID 0000.0001)                 6.273313078482073E+09,      /* J = 21 */
(PID.TID 0000.0001)                 6.458225266755869E+09,      /* J = 22 */
(PID.TID 0000.0001)                 6.641170217051002E+09,      /* J = 23 */
(PID.TID 0000.0001)                 6.822092202563635E+09,      /* J = 24 */
(PID.TID 0000.0001)                 7.000936112704308E+09,      /* J = 25 */
(PID.TID 0000.0001)                 7.177647469885383E+09,      /* J = 26 */
(PID.TID 0000.0001)                 7.352172446115779E+09,      /* J = 27 */
(PID.TID 0000.0001)                 7.524457879396867E+09,      /* J = 28 */
(PID.TID 0000.0001)                 7.694451289916993E+09,      /* J = 29 */
(PID.TID 0000.0001)                 7.862100896036314E+09,      /* J = 30 */
(PID.TID 0000.0001)                 8.027355630060758E+09,      /* J = 31 */
(PID.TID 0000.0001)                 8.190165153797634E+09,      /* J = 32 */
(PID.TID 0000.0001)                 8.350479873888739E+09,      /* J = 33 */
(PID.TID 0000.0001)                 8.508250956917325E+09,      /* J = 34 */
(PID.TID 0000.0001)                 8.663430344283134E+09,      /* J = 35 */
(PID.TID 0000.0001)                 8.815970766841537E+09,      /* J = 36 */
(PID.TID 0000.0001)                 8.965825759302174E+09,      /* J = 37 */
(PID.TID 0000.0001)                 9.112949674382580E+09,      /* J = 38 */
(PID.TID 0000.0001)                 9.257297696713127E+09,      /* J = 39 */
(PID.TID 0000.0001)                 9.398825856487764E+09       /* J = 40 */
(PID.TID 0000.0001)     ;
(PID.TID 0000.0001) rAw =  /* rAw(:,1,:,1) ( units: m^2 ) */
(PID.TID 0000.0001)    45 @  2.252480972600775E+09              /* I =  1: 45 */
(PID.TID 0000.0001)     ;
(PID.TID 0000.0001) rAw =  /* rAw(1,:,1,:) ( units: m^2 ) */
(PID.TID 0000.0001)                 2.252480972600775E+09,      /* J =  1 */
(PID.TID 0000.0001)                 2.464242236022337E+09,      /* J =  2 */
(PID.TID 0000.0001)                 2.675252867386942E+09,      /* J =  3 */
(PID.TID 0000.0001)                 2.885448590812564E+09,      /* J =  4 */
(PID.TID 0000.0001)                 3.094765378645360E+09,      /* J =  5 */
(PID.TID 0000.0001)                 3.303139470964198E+09,      /* J =  6 */
(PID.TID 0000.0001)                 3.510507395001996E+09,      /* J =  7 */
(PID.TID 0000.0001)                 3.716805984480110E+09,      /* J =  8 */
(PID.TID 0000.0001)                 3.921972398849929E+09,      /* J =  9 */
(PID.TID 0000.0001)                 4.125944142434001E+09,      /* J = 10 */
(PID.TID 0000.0001)                 4.328659083463362E+09,      /* J = 11 */
(PID.TID 0000.0001)                 4.530055473003297E+09,      /* J = 12 */
(PID.TID 0000.0001)                 4.730071963762505E+09,      /* J = 13 */
(PID.TID 0000.0001)                 4.928647628780381E+09,      /* J = 14 */
(PID.TID 0000.0001)                 5.125721979985523E+09,      /* J = 15 */
(PID.TID 0000.0001)                 5.321234986621584E+09,      /* J = 16 */
(PID.TID 0000.0001)                 5.515127093532944E+09,      /* J = 17 */
(PID.TID 0000.0001)                 5.707339239305150E+09,      /* J = 18 */
(PID.TID 0000.0001)                 5.897812874256923E+09,      /* J = 19 */
(PID.TID 0000.0001)                 6.086489978273794E+09,      /* J = 20 */
(PID.TID 0000.0001)                 6.273313078482073E+09,      /* J = 21 */
(PID.TID 0000.0001)                 6.458225266755869E+09,      /* J = 22 */
(PID.TID 0000.0001)                 6.641170217051002E+09,      /* J = 23 */
(PID.TID 0000.0001)                 6.822092202563635E+09,      /* J = 24 */
(PID.TID 0000.0001)                 7.000936112704308E+09,      /* J = 25 */
(PID.TID 0000.0001)                 7.177647469885383E+09,      /* J = 26 */
(PID.TID 0000.0001)                 7.352172446115779E+09,      /* J = 27 */
(PID.TID 0000.0001)                 7.524457879396867E+09,      /* J = 28 */
(PID.TID 0000.0001)                 7.694451289916993E+09,      /* J = 29 */
(PID.TID 0000.0001)                 7.862100896036314E+09,      /* J = 30 */
(PID.TID 0000.0001)                 8.027355630060758E+09,      /* J = 31 */
(PID.TID 0000.0001)                 8.190165153797634E+09,      /* J = 32 */
(PID.TID 0000.0001)                 8.350479873888739E+09,      /* J = 33 */
(PID.TID 0000.0001)                 8.508250956917325E+09,      /* J = 34 */
(PID.TID 0000.0001)                 8.663430344283134E+09,      /* J = 35 */
(PID.TID 0000.0001)                 8.815970766841537E+09,      /* J = 36 */
(PID.TID 0000.0001)                 8.965825759302174E+09,      /* J = 37 */
(PID.TID 0000.0001)                 9.112949674382580E+09,      /* J = 38 */
(PID.TID 0000.0001)                 9.257297696713127E+09,      /* J = 39 */
(PID.TID 0000.0001)                 9.398825856487764E+09       /* J = 40 */
(PID.TID 0000.0001)     ;
(PID.TID 0000.0001) rAs =  /* rAs(:,1,:,1) ( units: m^2 ) */
(PID.TID 0000.0001)    45 @  2.146339003140312E+09              /* I =  1: 45 */
(PID.TID 0000.0001)     ;
(PID.TID 0000.0001) rAs =  /* rAs(1,:,1,:) ( units: m^2 ) */
(PID.TID 0000.0001)                 2.146339003140312E+09,      /* J =  1 */
(PID.TID 0000.0001)                 2.358451406914464E+09,      /* J =  2 */
(PID.TID 0000.0001)                 2.569845403543145E+09,      /* J =  3 */
(PID.TID 0000.0001)                 2.780456600367350E+09,      /* J =  4 */
(PID.TID 0000.0001)                 2.990220843176115E+09,      /* J =  5 */
(PID.TID 0000.0001)                 3.199074235749182E+09,      /* J =  6 */
(PID.TID 0000.0001)                 3.406953159319860E+09,      /* J =  7 */
(PID.TID 0000.0001)                 3.613794291954373E+09,      /* J =  8 */
(PID.TID 0000.0001)                 3.819534627839939E+09,      /* J =  9 */
(PID.TID 0000.0001)                 4.024111496477147E+09,      /* J = 10 */
(PID.TID 0000.0001)                 4.227462581770208E+09,      /* J = 11 */
(PID.TID 0000.0001)                 4.429525941008306E+09,      /* J = 12 */
(PID.TID 0000.0001)                 4.630240023735217E+09,      /* J = 13 */
(PID.TID 0000.0001)                 4.829543690496597E+09,      /* J = 14 */
(PID.TID 0000.0001)                 5.027376231465073E+09,      /* J = 15 */
(PID.TID 0000.0001)                 5.223677384932224E+09,      /* J = 16 */
(PID.TID 0000.0001)                 5.418387355664783E+09,      /* J = 17 */
(PID.TID 0000.0001)                 5.611446833120007E+09,      /* J = 18 */
(PID.TID 0000.0001)                 5.802797009510403E+09,      /* J = 19 */
(PID.TID 0000.0001)                 5.992379597718760E+09,      /* J = 20 */
(PID.TID 0000.0001)                 6.180136849052222E+09,      /* J = 21 */
(PID.TID 0000.0001)                 6.366011570833056E+09,      /* J = 22 */
(PID.TID 0000.0001)                 6.549947143820458E+09,      /* J = 23 */
(PID.TID 0000.0001)                 6.731887539457176E+09,      /* J = 24 */
(PID.TID 0000.0001)                 6.911777336936083E+09,      /* J = 25 */
(PID.TID 0000.0001)                 7.089561740082285E+09,      /* J = 26 */
(PID.TID 0000.0001)                 7.265186594044338E+09,      /* J = 27 */
(PID.TID 0000.0001)                 7.438598401790304E+09,      /* J = 28 */
(PID.TID 0000.0001)                 7.609744340403865E+09,      /* J = 29 */
(PID.TID 0000.0001)                 7.778572277174043E+09,      /* J = 30 */
(PID.TID 0000.0001)                 7.945030785475936E+09,      /* J = 31 */
(PID.TID 0000.0001)                 8.109069160435303E+09,      /* J = 32 */
(PID.TID 0000.0001)                 8.270637434373945E+09,      /* J = 33 */
(PID.TID 0000.0001)                 8.429686392030848E+09,      /* J = 34 */
(PID.TID 0000.0001)                 8.586167585552389E+09,      /* J = 35 */
(PID.TID 0000.0001)                 8.740033349251320E+09,      /* J = 36 */
(PID.TID 0000.0001)                 8.891236814125528E+09,      /* J = 37 */
(PID.TID 0000.0001)                 9.039731922134653E+09,      /* J = 38 */
(PID.TID 0000.0001)                 9.185473440230581E+09,      /* J = 39 */
(PID.TID 0000.0001)                 9.328416974134933E+09       /* J = 40 */
(PID.TID 0000.0001)     ;
(PID.TID 0000.0001) globalArea = /* Integrated horizontal Area (m^2) */
(PID.TID 0000.0001)                 3.463878365678438E+14
(PID.TID 0000.0001)     ;
(PID.TID 0000.0001) // =======================================================
(PID.TID 0000.0001) // End of Model config. summary
(PID.TID 0000.0001) // =======================================================
(PID.TID 0000.0001) 
(PID.TID 0000.0001) == Packages configuration : Check & print summary ==
(PID.TID 0000.0001) 
(PID.TID 0000.0001) KPP_CHECK: #define ALLOW_KPP
(PID.TID 0000.0001) GMREDI_CHECK: #define GMREDI
(PID.TID 0000.0001) GM_AdvForm =     /* if FALSE => use SkewFlux Form */
(PID.TID 0000.0001)                   F
(PID.TID 0000.0001)     ;
(PID.TID 0000.0001) GM_InMomAsStress = /* if TRUE => apply as Eddy Stress */
(PID.TID 0000.0001)                   F
(PID.TID 0000.0001)     ;
(PID.TID 0000.0001) GM_AdvSeparate = /* Calc Bolus & Euler Adv. separately */
(PID.TID 0000.0001)                   F
(PID.TID 0000.0001)     ;
(PID.TID 0000.0001) GM_ExtraDiag =   /* Tensor Extra Diag (line 1&2) non 0 */
(PID.TID 0000.0001)                   F
(PID.TID 0000.0001)     ;
(PID.TID 0000.0001) GM_isopycK =    /* Background Isopyc. Diffusivity [m^2/s] */
(PID.TID 0000.0001)                 1.000000000000000E+03
(PID.TID 0000.0001)     ;
(PID.TID 0000.0001) GM_skewflx*K =  /* Background GM_SkewFlx Diffusivity [m^2/s] */
(PID.TID 0000.0001)                 1.000000000000000E+03
(PID.TID 0000.0001)     ;
(PID.TID 0000.0001) GM_advec*K =    /* Backg. GM-Advec(=Bolus) Diffusivity [m^2/s]*/
(PID.TID 0000.0001)                 0.000000000000000E+00
(PID.TID 0000.0001)     ;
(PID.TID 0000.0001) GM_Kmin_horiz = /* Minimum Horizontal Diffusivity [m^2/s] */
(PID.TID 0000.0001)                 5.000000000000000E+01
(PID.TID 0000.0001)     ;
(PID.TID 0000.0001) GM_Visbeck_alpha = /* Visbeck alpha coeff. [-] */
(PID.TID 0000.0001)                 0.000000000000000E+00
(PID.TID 0000.0001)     ;
(PID.TID 0000.0001) GM_Small_Number =  /* epsilon used in slope calc */
(PID.TID 0000.0001)                 9.999999999999999E-21
(PID.TID 0000.0001)     ;
(PID.TID 0000.0001) GM_slopeSqCutoff = /* Slope^2 cut-off value */
(PID.TID 0000.0001)                 1.000000000000000E+08
(PID.TID 0000.0001)     ;
(PID.TID 0000.0001) GM_taper_scheme =  /* Type of Tapering/Clipping scheme */
(PID.TID 0000.0001)               'dm95                                    '
(PID.TID 0000.0001)     ;
(PID.TID 0000.0001) GM_maxSlope =  /* Maximum Slope (Tapering/Clipping) */
(PID.TID 0000.0001)                 1.000000000000000E-02
(PID.TID 0000.0001)     ;
(PID.TID 0000.0001) GM_facTrL2dz = /* Minimum Trans.Layer Thick. (factor of dz) */
(PID.TID 0000.0001)                 1.000000000000000E+00
(PID.TID 0000.0001)     ;
(PID.TID 0000.0001) GM_facTrL2ML = /* Max.Trans.Layer Thick. (factor of MxL Depth)*/
(PID.TID 0000.0001)                 5.000000000000000E+00
(PID.TID 0000.0001)     ;
(PID.TID 0000.0001) GM_maxTransLay = /* Maximum Transition Layer Thickness [m] */
(PID.TID 0000.0001)                 5.000000000000000E+02
(PID.TID 0000.0001)     ;
(PID.TID 0000.0001) GM_UseBVP = /* if TRUE => use bvp a la Ferrari et al. (2010) */
(PID.TID 0000.0001)                   F
(PID.TID 0000.0001)     ;
(PID.TID 0000.0001) GM_BVP_ModeNumber = /* Vertical mode number for BVP wave speed */
(PID.TID 0000.0001)                       1
(PID.TID 0000.0001)     ;
(PID.TID 0000.0001) GM_BVP_cMin = /* Minimum wave speed for BVP [m/s] */
(PID.TID 0000.0001)                 1.000000000000000E-01
(PID.TID 0000.0001)     ;
(PID.TID 0000.0001) GM_useSubMeso = /* if TRUE => use Sub-Meso param. (B.Fox-Kemper) */
(PID.TID 0000.0001)                   F
(PID.TID 0000.0001)     ;
(PID.TID 0000.0001) subMeso_Ceff = /* efficiency coeff. of Mixed-Layer Eddies [-] */
(PID.TID 0000.0001)                 7.000000000000001E-02
(PID.TID 0000.0001)     ;
(PID.TID 0000.0001) subMeso_invTau = /* inverse of Sub-Meso mixing time-scale [/s] */
(PID.TID 0000.0001)                 2.000000000000000E-06
(PID.TID 0000.0001)     ;
(PID.TID 0000.0001) subMeso_LfMin = /* minimum length-scale "Lf" [m] */
(PID.TID 0000.0001)                 1.000000000000000E+03
(PID.TID 0000.0001)     ;
(PID.TID 0000.0001) subMeso_Lmax = /* maximum grid-scale length [m] */
(PID.TID 0000.0001)                 1.100000000000000E+05
(PID.TID 0000.0001)     ;
(PID.TID 0000.0001) PTRACERS_CHECK: #define ALLOW_PTRACERS
(PID.TID 0000.0001) PTRACERS_CHECK: updated GAD_OlMinSize=  2  0  1
(PID.TID 0000.0001) // ===================================
(PID.TID 0000.0001) // PTRACERS parameters
(PID.TID 0000.0001) // ===================================
(PID.TID 0000.0001) PTRACERS_numInUse = /* number of tracers */
(PID.TID 0000.0001)                     233
(PID.TID 0000.0001)     ;
(PID.TID 0000.0001) PTRACERS_Iter0 = /* timestep number when tracers are initialized */
(PID.TID 0000.0001)                       0
(PID.TID 0000.0001)     ;
(PID.TID 0000.0001) PTRACERS_startAllTrc =/* all tracers start @ startTime */
(PID.TID 0000.0001)                   T
(PID.TID 0000.0001)     ;
(PID.TID 0000.0001) PTRACERS_addSrelax2EmP =/* add Salt relaxation to EmP */
(PID.TID 0000.0001)                   F
(PID.TID 0000.0001)     ;
(PID.TID 0000.0001) PTRACERS_dTLev =   /* Ptracer timestep ( s ) */
(PID.TID 0000.0001)    23 @  1.080000000000000E+04              /* K =  1: 23 */
(PID.TID 0000.0001)     ;
(PID.TID 0000.0001) PTRACERS_monitorFreq = /* Frequency^-1 for monitor output (s) */
(PID.TID 0000.0001)                 1.000000000000000E+00
(PID.TID 0000.0001)     ;
(PID.TID 0000.0001) PTRACERS_dumpFreq = /* Frequency^-1 for snapshot output (s) */
(PID.TID 0000.0001)                 3.110400000000000E+07
(PID.TID 0000.0001)     ;
(PID.TID 0000.0001) PTRACERS_taveFreq = /* Frequency^-1 for time-Aver. output (s) */
(PID.TID 0000.0001)                 3.110400000000000E+07
(PID.TID 0000.0001)     ;
(PID.TID 0000.0001) PTRACERS_useRecords = /* all tracers in 1 file */
(PID.TID 0000.0001)                   F
(PID.TID 0000.0001)     ;
(PID.TID 0000.0001) PTRACERS_timeave_mnc = /* use MNC for Tave output */
(PID.TID 0000.0001)                   T
(PID.TID 0000.0001)     ;
(PID.TID 0000.0001) PTRACERS_snapshot_mnc = /* use MNC for snapshot output */
(PID.TID 0000.0001)                   T
(PID.TID 0000.0001)     ;
(PID.TID 0000.0001) PTRACERS_pickup_write_mnc = /* use MNC for writing pickups */
(PID.TID 0000.0001)                   F
(PID.TID 0000.0001)     ;
(PID.TID 0000.0001) PTRACERS_pickup_read_mnc = /* use MNC for reading pickups */
(PID.TID 0000.0001)                   F
(PID.TID 0000.0001)     ;
(PID.TID 0000.0001)  -----------------------------------
(PID.TID 0000.0001)  tracer number :    1
(PID.TID 0000.0001) PTRACERS_names = /* Tracer short name */
(PID.TID 0000.0001)               'DIC'
(PID.TID 0000.0001)     ;
(PID.TID 0000.0001) PTRACERS_long_names = /* Tracer long name */
(PID.TID 0000.0001)               ''
(PID.TID 0000.0001)     ;
(PID.TID 0000.0001) PTRACERS_ioLabel = /* tracer IO Label */
(PID.TID 0000.0001)               '01'
(PID.TID 0000.0001)     ;
(PID.TID 0000.0001) PTRACERS_advScheme = /* Advection Scheme */
(PID.TID 0000.0001)                      33
(PID.TID 0000.0001)     ;
(PID.TID 0000.0001) PTRACERS_SOM_Advection = /* tracer uses SOM advection scheme */
(PID.TID 0000.0001)                   F
(PID.TID 0000.0001)     ;
(PID.TID 0000.0001) PTRACERS_ImplVertAdv = /* implicit vert. advection flag */
(PID.TID 0000.0001)                   F
(PID.TID 0000.0001)     ;
(PID.TID 0000.0001) PTRACERS_diffKh = /* Laplacian Diffusivity */
(PID.TID 0000.0001)                 0.000000000000000E+00
(PID.TID 0000.0001)     ;
(PID.TID 0000.0001) PTRACERS_diffK4 = /* Biharmonic Diffusivity */
(PID.TID 0000.0001)                 0.000000000000000E+00
(PID.TID 0000.0001)     ;
(PID.TID 0000.0001) PTRACERS_diffKrNr = /* Vertical Diffusivity */
(PID.TID 0000.0001)    23 @  1.000000000000000E-05              /* K =  1: 23 */
(PID.TID 0000.0001)     ;
(PID.TID 0000.0001) PTRACERS_useGMRedi = /* apply GM-Redi */
(PID.TID 0000.0001)                   T
(PID.TID 0000.0001)     ;
(PID.TID 0000.0001) PTRACERS_useDWNSLP = /* apply DOWN-SLOPE Flow */
(PID.TID 0000.0001)                   F
(PID.TID 0000.0001)     ;
(PID.TID 0000.0001) PTRACERS_useKPP = /* apply KPP scheme */
(PID.TID 0000.0001)                   T
(PID.TID 0000.0001)     ;
(PID.TID 0000.0001) PTRACERS_ref = /* Reference vertical profile */
(PID.TID 0000.0001)    23 @  0.000000000000000E+00              /* K =  1: 23 */
(PID.TID 0000.0001)     ;
(PID.TID 0000.0001) PTRACERS_EvPrRn =/* tracer conc. in Evap. & Rain */
(PID.TID 0000.0001)                 1.234567000000000E+05
(PID.TID 0000.0001)     ;
(PID.TID 0000.0001)  -----------------------------------
(PID.TID 0000.0001)  tracer number :    2
(PID.TID 0000.0001) PTRACERS_names = /* Tracer short name */
(PID.TID 0000.0001)               'NH4'
(PID.TID 0000.0001)     ;
(PID.TID 0000.0001) PTRACERS_long_names = /* Tracer long name */
(PID.TID 0000.0001)               ''
(PID.TID 0000.0001)     ;
(PID.TID 0000.0001) PTRACERS_ioLabel = /* tracer IO Label */
(PID.TID 0000.0001)               '02'
(PID.TID 0000.0001)     ;
(PID.TID 0000.0001) PTRACERS_advScheme = /* Advection Scheme */
(PID.TID 0000.0001)                      33
(PID.TID 0000.0001)     ;
(PID.TID 0000.0001) PTRACERS_SOM_Advection = /* tracer uses SOM advection scheme */
(PID.TID 0000.0001)                   F
(PID.TID 0000.0001)     ;
(PID.TID 0000.0001) PTRACERS_ImplVertAdv = /* implicit vert. advection flag */
(PID.TID 0000.0001)                   F
(PID.TID 0000.0001)     ;
(PID.TID 0000.0001) PTRACERS_diffKh = /* Laplacian Diffusivity */
(PID.TID 0000.0001)                 0.000000000000000E+00
(PID.TID 0000.0001)     ;
(PID.TID 0000.0001) PTRACERS_diffK4 = /* Biharmonic Diffusivity */
(PID.TID 0000.0001)                 0.000000000000000E+00
(PID.TID 0000.0001)     ;
(PID.TID 0000.0001) PTRACERS_diffKrNr = /* Vertical Diffusivity */
(PID.TID 0000.0001)    23 @  1.000000000000000E-05              /* K =  1: 23 */
(PID.TID 0000.0001)     ;
(PID.TID 0000.0001) PTRACERS_useGMRedi = /* apply GM-Redi */
(PID.TID 0000.0001)                   T
(PID.TID 0000.0001)     ;
(PID.TID 0000.0001) PTRACERS_useDWNSLP = /* apply DOWN-SLOPE Flow */
(PID.TID 0000.0001)                   F
(PID.TID 0000.0001)     ;
(PID.TID 0000.0001) PTRACERS_useKPP = /* apply KPP scheme */
(PID.TID 0000.0001)                   T
(PID.TID 0000.0001)     ;
(PID.TID 0000.0001) PTRACERS_ref = /* Reference vertical profile */
(PID.TID 0000.0001)    23 @  0.000000000000000E+00              /* K =  1: 23 */
(PID.TID 0000.0001)     ;
(PID.TID 0000.0001) PTRACERS_EvPrRn =/* tracer conc. in Evap. & Rain */
(PID.TID 0000.0001)                 1.234567000000000E+05
(PID.TID 0000.0001)     ;
(PID.TID 0000.0001)  -----------------------------------
(PID.TID 0000.0001)  tracer number :    3
(PID.TID 0000.0001) PTRACERS_names = /* Tracer short name */
(PID.TID 0000.0001)               'NO2'
(PID.TID 0000.0001)     ;
(PID.TID 0000.0001) PTRACERS_long_names = /* Tracer long name */
(PID.TID 0000.0001)               ''
(PID.TID 0000.0001)     ;
(PID.TID 0000.0001) PTRACERS_ioLabel = /* tracer IO Label */
(PID.TID 0000.0001)               '03'
(PID.TID 0000.0001)     ;
(PID.TID 0000.0001) PTRACERS_advScheme = /* Advection Scheme */
(PID.TID 0000.0001)                      33
(PID.TID 0000.0001)     ;
(PID.TID 0000.0001) PTRACERS_SOM_Advection = /* tracer uses SOM advection scheme */
(PID.TID 0000.0001)                   F
(PID.TID 0000.0001)     ;
(PID.TID 0000.0001) PTRACERS_ImplVertAdv = /* implicit vert. advection flag */
(PID.TID 0000.0001)                   F
(PID.TID 0000.0001)     ;
(PID.TID 0000.0001) PTRACERS_diffKh = /* Laplacian Diffusivity */
(PID.TID 0000.0001)                 0.000000000000000E+00
(PID.TID 0000.0001)     ;
(PID.TID 0000.0001) PTRACERS_diffK4 = /* Biharmonic Diffusivity */
(PID.TID 0000.0001)                 0.000000000000000E+00
(PID.TID 0000.0001)     ;
(PID.TID 0000.0001) PTRACERS_diffKrNr = /* Vertical Diffusivity */
(PID.TID 0000.0001)    23 @  1.000000000000000E-05              /* K =  1: 23 */
(PID.TID 0000.0001)     ;
(PID.TID 0000.0001) PTRACERS_useGMRedi = /* apply GM-Redi */
(PID.TID 0000.0001)                   T
(PID.TID 0000.0001)     ;
(PID.TID 0000.0001) PTRACERS_useDWNSLP = /* apply DOWN-SLOPE Flow */
(PID.TID 0000.0001)                   F
(PID.TID 0000.0001)     ;
(PID.TID 0000.0001) PTRACERS_useKPP = /* apply KPP scheme */
(PID.TID 0000.0001)                   T
(PID.TID 0000.0001)     ;
(PID.TID 0000.0001) PTRACERS_ref = /* Reference vertical profile */
(PID.TID 0000.0001)    23 @  0.000000000000000E+00              /* K =  1: 23 */
(PID.TID 0000.0001)     ;
(PID.TID 0000.0001) PTRACERS_EvPrRn =/* tracer conc. in Evap. & Rain */
(PID.TID 0000.0001)                 1.234567000000000E+05
(PID.TID 0000.0001)     ;
(PID.TID 0000.0001)  -----------------------------------
(PID.TID 0000.0001)  tracer number :    4
(PID.TID 0000.0001) PTRACERS_names = /* Tracer short name */
(PID.TID 0000.0001)               'NO3'
(PID.TID 0000.0001)     ;
(PID.TID 0000.0001) PTRACERS_long_names = /* Tracer long name */
(PID.TID 0000.0001)               ''
(PID.TID 0000.0001)     ;
(PID.TID 0000.0001) PTRACERS_ioLabel = /* tracer IO Label */
(PID.TID 0000.0001)               '04'
(PID.TID 0000.0001)     ;
(PID.TID 0000.0001) PTRACERS_advScheme = /* Advection Scheme */
(PID.TID 0000.0001)                      33
(PID.TID 0000.0001)     ;
(PID.TID 0000.0001) PTRACERS_SOM_Advection = /* tracer uses SOM advection scheme */
(PID.TID 0000.0001)                   F
(PID.TID 0000.0001)     ;
(PID.TID 0000.0001) PTRACERS_ImplVertAdv = /* implicit vert. advection flag */
(PID.TID 0000.0001)                   F
(PID.TID 0000.0001)     ;
(PID.TID 0000.0001) PTRACERS_diffKh = /* Laplacian Diffusivity */
(PID.TID 0000.0001)                 0.000000000000000E+00
(PID.TID 0000.0001)     ;
(PID.TID 0000.0001) PTRACERS_diffK4 = /* Biharmonic Diffusivity */
(PID.TID 0000.0001)                 0.000000000000000E+00
(PID.TID 0000.0001)     ;
(PID.TID 0000.0001) PTRACERS_diffKrNr = /* Vertical Diffusivity */
(PID.TID 0000.0001)    23 @  1.000000000000000E-05              /* K =  1: 23 */
(PID.TID 0000.0001)     ;
(PID.TID 0000.0001) PTRACERS_useGMRedi = /* apply GM-Redi */
(PID.TID 0000.0001)                   T
(PID.TID 0000.0001)     ;
(PID.TID 0000.0001) PTRACERS_useDWNSLP = /* apply DOWN-SLOPE Flow */
(PID.TID 0000.0001)                   F
(PID.TID 0000.0001)     ;
(PID.TID 0000.0001) PTRACERS_useKPP = /* apply KPP scheme */
(PID.TID 0000.0001)                   T
(PID.TID 0000.0001)     ;
(PID.TID 0000.0001) PTRACERS_ref = /* Reference vertical profile */
(PID.TID 0000.0001)    23 @  0.000000000000000E+00              /* K =  1: 23 */
(PID.TID 0000.0001)     ;
(PID.TID 0000.0001) PTRACERS_EvPrRn =/* tracer conc. in Evap. & Rain */
(PID.TID 0000.0001)                 1.234567000000000E+05
(PID.TID 0000.0001)     ;
(PID.TID 0000.0001)  -----------------------------------
(PID.TID 0000.0001)  tracer number :    5
(PID.TID 0000.0001) PTRACERS_names = /* Tracer short name */
(PID.TID 0000.0001)               'PO4'
(PID.TID 0000.0001)     ;
(PID.TID 0000.0001) PTRACERS_long_names = /* Tracer long name */
(PID.TID 0000.0001)               ''
(PID.TID 0000.0001)     ;
(PID.TID 0000.0001) PTRACERS_ioLabel = /* tracer IO Label */
(PID.TID 0000.0001)               '05'
(PID.TID 0000.0001)     ;
(PID.TID 0000.0001) PTRACERS_advScheme = /* Advection Scheme */
(PID.TID 0000.0001)                      33
(PID.TID 0000.0001)     ;
(PID.TID 0000.0001) PTRACERS_SOM_Advection = /* tracer uses SOM advection scheme */
(PID.TID 0000.0001)                   F
(PID.TID 0000.0001)     ;
(PID.TID 0000.0001) PTRACERS_ImplVertAdv = /* implicit vert. advection flag */
(PID.TID 0000.0001)                   F
(PID.TID 0000.0001)     ;
(PID.TID 0000.0001) PTRACERS_diffKh = /* Laplacian Diffusivity */
(PID.TID 0000.0001)                 0.000000000000000E+00
(PID.TID 0000.0001)     ;
(PID.TID 0000.0001) PTRACERS_diffK4 = /* Biharmonic Diffusivity */
(PID.TID 0000.0001)                 0.000000000000000E+00
(PID.TID 0000.0001)     ;
(PID.TID 0000.0001) PTRACERS_diffKrNr = /* Vertical Diffusivity */
(PID.TID 0000.0001)    23 @  1.000000000000000E-05              /* K =  1: 23 */
(PID.TID 0000.0001)     ;
(PID.TID 0000.0001) PTRACERS_useGMRedi = /* apply GM-Redi */
(PID.TID 0000.0001)                   T
(PID.TID 0000.0001)     ;
(PID.TID 0000.0001) PTRACERS_useDWNSLP = /* apply DOWN-SLOPE Flow */
(PID.TID 0000.0001)                   F
(PID.TID 0000.0001)     ;
(PID.TID 0000.0001) PTRACERS_useKPP = /* apply KPP scheme */
(PID.TID 0000.0001)                   T
(PID.TID 0000.0001)     ;
(PID.TID 0000.0001) PTRACERS_ref = /* Reference vertical profile */
(PID.TID 0000.0001)    23 @  0.000000000000000E+00              /* K =  1: 23 */
(PID.TID 0000.0001)     ;
(PID.TID 0000.0001) PTRACERS_EvPrRn =/* tracer conc. in Evap. & Rain */
(PID.TID 0000.0001)                 1.234567000000000E+05
(PID.TID 0000.0001)     ;
(PID.TID 0000.0001)  -----------------------------------
(PID.TID 0000.0001)  tracer number :    6
(PID.TID 0000.0001) PTRACERS_names = /* Tracer short name */
(PID.TID 0000.0001)               'SiO2'
(PID.TID 0000.0001)     ;
(PID.TID 0000.0001) PTRACERS_long_names = /* Tracer long name */
(PID.TID 0000.0001)               ''
(PID.TID 0000.0001)     ;
(PID.TID 0000.0001) PTRACERS_ioLabel = /* tracer IO Label */
(PID.TID 0000.0001)               '06'
(PID.TID 0000.0001)     ;
(PID.TID 0000.0001) PTRACERS_advScheme = /* Advection Scheme */
(PID.TID 0000.0001)                      33
(PID.TID 0000.0001)     ;
(PID.TID 0000.0001) PTRACERS_SOM_Advection = /* tracer uses SOM advection scheme */
(PID.TID 0000.0001)                   F
(PID.TID 0000.0001)     ;
(PID.TID 0000.0001) PTRACERS_ImplVertAdv = /* implicit vert. advection flag */
(PID.TID 0000.0001)                   F
(PID.TID 0000.0001)     ;
(PID.TID 0000.0001) PTRACERS_diffKh = /* Laplacian Diffusivity */
(PID.TID 0000.0001)                 0.000000000000000E+00
(PID.TID 0000.0001)     ;
(PID.TID 0000.0001) PTRACERS_diffK4 = /* Biharmonic Diffusivity */
(PID.TID 0000.0001)                 0.000000000000000E+00
(PID.TID 0000.0001)     ;
(PID.TID 0000.0001) PTRACERS_diffKrNr = /* Vertical Diffusivity */
(PID.TID 0000.0001)    23 @  1.000000000000000E-05              /* K =  1: 23 */
(PID.TID 0000.0001)     ;
(PID.TID 0000.0001) PTRACERS_useGMRedi = /* apply GM-Redi */
(PID.TID 0000.0001)                   T
(PID.TID 0000.0001)     ;
(PID.TID 0000.0001) PTRACERS_useDWNSLP = /* apply DOWN-SLOPE Flow */
(PID.TID 0000.0001)                   F
(PID.TID 0000.0001)     ;
(PID.TID 0000.0001) PTRACERS_useKPP = /* apply KPP scheme */
(PID.TID 0000.0001)                   T
(PID.TID 0000.0001)     ;
(PID.TID 0000.0001) PTRACERS_ref = /* Reference vertical profile */
(PID.TID 0000.0001)    23 @  0.000000000000000E+00              /* K =  1: 23 */
(PID.TID 0000.0001)     ;
(PID.TID 0000.0001) PTRACERS_EvPrRn =/* tracer conc. in Evap. & Rain */
(PID.TID 0000.0001)                 1.234567000000000E+05
(PID.TID 0000.0001)     ;
(PID.TID 0000.0001)  -----------------------------------
(PID.TID 0000.0001)  tracer number :    7
(PID.TID 0000.0001) PTRACERS_names = /* Tracer short name */
(PID.TID 0000.0001)               'FeT'
(PID.TID 0000.0001)     ;
(PID.TID 0000.0001) PTRACERS_long_names = /* Tracer long name */
(PID.TID 0000.0001)               ''
(PID.TID 0000.0001)     ;
(PID.TID 0000.0001) PTRACERS_ioLabel = /* tracer IO Label */
(PID.TID 0000.0001)               '07'
(PID.TID 0000.0001)     ;
(PID.TID 0000.0001) PTRACERS_advScheme = /* Advection Scheme */
(PID.TID 0000.0001)                      33
(PID.TID 0000.0001)     ;
(PID.TID 0000.0001) PTRACERS_SOM_Advection = /* tracer uses SOM advection scheme */
(PID.TID 0000.0001)                   F
(PID.TID 0000.0001)     ;
(PID.TID 0000.0001) PTRACERS_ImplVertAdv = /* implicit vert. advection flag */
(PID.TID 0000.0001)                   F
(PID.TID 0000.0001)     ;
(PID.TID 0000.0001) PTRACERS_diffKh = /* Laplacian Diffusivity */
(PID.TID 0000.0001)                 0.000000000000000E+00
(PID.TID 0000.0001)     ;
(PID.TID 0000.0001) PTRACERS_diffK4 = /* Biharmonic Diffusivity */
(PID.TID 0000.0001)                 0.000000000000000E+00
(PID.TID 0000.0001)     ;
(PID.TID 0000.0001) PTRACERS_diffKrNr = /* Vertical Diffusivity */
(PID.TID 0000.0001)    23 @  1.000000000000000E-05              /* K =  1: 23 */
(PID.TID 0000.0001)     ;
(PID.TID 0000.0001) PTRACERS_useGMRedi = /* apply GM-Redi */
(PID.TID 0000.0001)                   T
(PID.TID 0000.0001)     ;
(PID.TID 0000.0001) PTRACERS_useDWNSLP = /* apply DOWN-SLOPE Flow */
(PID.TID 0000.0001)                   F
(PID.TID 0000.0001)     ;
(PID.TID 0000.0001) PTRACERS_useKPP = /* apply KPP scheme */
(PID.TID 0000.0001)                   T
(PID.TID 0000.0001)     ;
(PID.TID 0000.0001) PTRACERS_ref = /* Reference vertical profile */
(PID.TID 0000.0001)    23 @  0.000000000000000E+00              /* K =  1: 23 */
(PID.TID 0000.0001)     ;
(PID.TID 0000.0001) PTRACERS_EvPrRn =/* tracer conc. in Evap. & Rain */
(PID.TID 0000.0001)                 1.234567000000000E+05
(PID.TID 0000.0001)     ;
(PID.TID 0000.0001)  -----------------------------------
(PID.TID 0000.0001)  tracer number :    8
(PID.TID 0000.0001) PTRACERS_names = /* Tracer short name */
(PID.TID 0000.0001)               'DOC'
(PID.TID 0000.0001)     ;
(PID.TID 0000.0001) PTRACERS_long_names = /* Tracer long name */
(PID.TID 0000.0001)               ''
(PID.TID 0000.0001)     ;
(PID.TID 0000.0001) PTRACERS_ioLabel = /* tracer IO Label */
(PID.TID 0000.0001)               '08'
(PID.TID 0000.0001)     ;
(PID.TID 0000.0001) PTRACERS_advScheme = /* Advection Scheme */
(PID.TID 0000.0001)                      33
(PID.TID 0000.0001)     ;
(PID.TID 0000.0001) PTRACERS_SOM_Advection = /* tracer uses SOM advection scheme */
(PID.TID 0000.0001)                   F
(PID.TID 0000.0001)     ;
(PID.TID 0000.0001) PTRACERS_ImplVertAdv = /* implicit vert. advection flag */
(PID.TID 0000.0001)                   F
(PID.TID 0000.0001)     ;
(PID.TID 0000.0001) PTRACERS_diffKh = /* Laplacian Diffusivity */
(PID.TID 0000.0001)                 0.000000000000000E+00
(PID.TID 0000.0001)     ;
(PID.TID 0000.0001) PTRACERS_diffK4 = /* Biharmonic Diffusivity */
(PID.TID 0000.0001)                 0.000000000000000E+00
(PID.TID 0000.0001)     ;
(PID.TID 0000.0001) PTRACERS_diffKrNr = /* Vertical Diffusivity */
(PID.TID 0000.0001)    23 @  1.000000000000000E-05              /* K =  1: 23 */
(PID.TID 0000.0001)     ;
(PID.TID 0000.0001) PTRACERS_useGMRedi = /* apply GM-Redi */
(PID.TID 0000.0001)                   T
(PID.TID 0000.0001)     ;
(PID.TID 0000.0001) PTRACERS_useDWNSLP = /* apply DOWN-SLOPE Flow */
(PID.TID 0000.0001)                   F
(PID.TID 0000.0001)     ;
(PID.TID 0000.0001) PTRACERS_useKPP = /* apply KPP scheme */
(PID.TID 0000.0001)                   T
(PID.TID 0000.0001)     ;
(PID.TID 0000.0001) PTRACERS_ref = /* Reference vertical profile */
(PID.TID 0000.0001)    23 @  0.000000000000000E+00              /* K =  1: 23 */
(PID.TID 0000.0001)     ;
(PID.TID 0000.0001) PTRACERS_EvPrRn =/* tracer conc. in Evap. & Rain */
(PID.TID 0000.0001)                 1.234567000000000E+05
(PID.TID 0000.0001)     ;
(PID.TID 0000.0001)  -----------------------------------
(PID.TID 0000.0001)  tracer number :    9
(PID.TID 0000.0001) PTRACERS_names = /* Tracer short name */
(PID.TID 0000.0001)               'DON'
(PID.TID 0000.0001)     ;
(PID.TID 0000.0001) PTRACERS_long_names = /* Tracer long name */
(PID.TID 0000.0001)               ''
(PID.TID 0000.0001)     ;
(PID.TID 0000.0001) PTRACERS_ioLabel = /* tracer IO Label */
(PID.TID 0000.0001)               '09'
(PID.TID 0000.0001)     ;
(PID.TID 0000.0001) PTRACERS_advScheme = /* Advection Scheme */
(PID.TID 0000.0001)                      33
(PID.TID 0000.0001)     ;
(PID.TID 0000.0001) PTRACERS_SOM_Advection = /* tracer uses SOM advection scheme */
(PID.TID 0000.0001)                   F
(PID.TID 0000.0001)     ;
(PID.TID 0000.0001) PTRACERS_ImplVertAdv = /* implicit vert. advection flag */
(PID.TID 0000.0001)                   F
(PID.TID 0000.0001)     ;
(PID.TID 0000.0001) PTRACERS_diffKh = /* Laplacian Diffusivity */
(PID.TID 0000.0001)                 0.000000000000000E+00
(PID.TID 0000.0001)     ;
(PID.TID 0000.0001) PTRACERS_diffK4 = /* Biharmonic Diffusivity */
(PID.TID 0000.0001)                 0.000000000000000E+00
(PID.TID 0000.0001)     ;
(PID.TID 0000.0001) PTRACERS_diffKrNr = /* Vertical Diffusivity */
(PID.TID 0000.0001)    23 @  1.000000000000000E-05              /* K =  1: 23 */
(PID.TID 0000.0001)     ;
(PID.TID 0000.0001) PTRACERS_useGMRedi = /* apply GM-Redi */
(PID.TID 0000.0001)                   T
(PID.TID 0000.0001)     ;
(PID.TID 0000.0001) PTRACERS_useDWNSLP = /* apply DOWN-SLOPE Flow */
(PID.TID 0000.0001)                   F
(PID.TID 0000.0001)     ;
(PID.TID 0000.0001) PTRACERS_useKPP = /* apply KPP scheme */
(PID.TID 0000.0001)                   T
(PID.TID 0000.0001)     ;
(PID.TID 0000.0001) PTRACERS_ref = /* Reference vertical profile */
(PID.TID 0000.0001)    23 @  0.000000000000000E+00              /* K =  1: 23 */
(PID.TID 0000.0001)     ;
(PID.TID 0000.0001) PTRACERS_EvPrRn =/* tracer conc. in Evap. & Rain */
(PID.TID 0000.0001)                 1.234567000000000E+05
(PID.TID 0000.0001)     ;
(PID.TID 0000.0001)  -----------------------------------
(PID.TID 0000.0001)  tracer number :   10
(PID.TID 0000.0001) PTRACERS_names = /* Tracer short name */
(PID.TID 0000.0001)               'DOP'
(PID.TID 0000.0001)     ;
(PID.TID 0000.0001) PTRACERS_long_names = /* Tracer long name */
(PID.TID 0000.0001)               ''
(PID.TID 0000.0001)     ;
(PID.TID 0000.0001) PTRACERS_ioLabel = /* tracer IO Label */
(PID.TID 0000.0001)               '10'
(PID.TID 0000.0001)     ;
(PID.TID 0000.0001) PTRACERS_advScheme = /* Advection Scheme */
(PID.TID 0000.0001)                      33
(PID.TID 0000.0001)     ;
(PID.TID 0000.0001) PTRACERS_SOM_Advection = /* tracer uses SOM advection scheme */
(PID.TID 0000.0001)                   F
(PID.TID 0000.0001)     ;
(PID.TID 0000.0001) PTRACERS_ImplVertAdv = /* implicit vert. advection flag */
(PID.TID 0000.0001)                   F
(PID.TID 0000.0001)     ;
(PID.TID 0000.0001) PTRACERS_diffKh = /* Laplacian Diffusivity */
(PID.TID 0000.0001)                 0.000000000000000E+00
(PID.TID 0000.0001)     ;
(PID.TID 0000.0001) PTRACERS_diffK4 = /* Biharmonic Diffusivity */
(PID.TID 0000.0001)                 0.000000000000000E+00
(PID.TID 0000.0001)     ;
(PID.TID 0000.0001) PTRACERS_diffKrNr = /* Vertical Diffusivity */
(PID.TID 0000.0001)    23 @  1.000000000000000E-05              /* K =  1: 23 */
(PID.TID 0000.0001)     ;
(PID.TID 0000.0001) PTRACERS_useGMRedi = /* apply GM-Redi */
(PID.TID 0000.0001)                   T
(PID.TID 0000.0001)     ;
(PID.TID 0000.0001) PTRACERS_useDWNSLP = /* apply DOWN-SLOPE Flow */
(PID.TID 0000.0001)                   F
(PID.TID 0000.0001)     ;
(PID.TID 0000.0001) PTRACERS_useKPP = /* apply KPP scheme */
(PID.TID 0000.0001)                   T
(PID.TID 0000.0001)     ;
(PID.TID 0000.0001) PTRACERS_ref = /* Reference vertical profile */
(PID.TID 0000.0001)    23 @  0.000000000000000E+00              /* K =  1: 23 */
(PID.TID 0000.0001)     ;
(PID.TID 0000.0001) PTRACERS_EvPrRn =/* tracer conc. in Evap. & Rain */
(PID.TID 0000.0001)                 1.234567000000000E+05
(PID.TID 0000.0001)     ;
(PID.TID 0000.0001)  -----------------------------------
(PID.TID 0000.0001)  tracer number :   11
(PID.TID 0000.0001) PTRACERS_names = /* Tracer short name */
(PID.TID 0000.0001)               'DOFe'
(PID.TID 0000.0001)     ;
(PID.TID 0000.0001) PTRACERS_long_names = /* Tracer long name */
(PID.TID 0000.0001)               ''
(PID.TID 0000.0001)     ;
(PID.TID 0000.0001) PTRACERS_ioLabel = /* tracer IO Label */
(PID.TID 0000.0001)               '11'
(PID.TID 0000.0001)     ;
(PID.TID 0000.0001) PTRACERS_advScheme = /* Advection Scheme */
(PID.TID 0000.0001)                      33
(PID.TID 0000.0001)     ;
(PID.TID 0000.0001) PTRACERS_SOM_Advection = /* tracer uses SOM advection scheme */
(PID.TID 0000.0001)                   F
(PID.TID 0000.0001)     ;
(PID.TID 0000.0001) PTRACERS_ImplVertAdv = /* implicit vert. advection flag */
(PID.TID 0000.0001)                   F
(PID.TID 0000.0001)     ;
(PID.TID 0000.0001) PTRACERS_diffKh = /* Laplacian Diffusivity */
(PID.TID 0000.0001)                 0.000000000000000E+00
(PID.TID 0000.0001)     ;
(PID.TID 0000.0001) PTRACERS_diffK4 = /* Biharmonic Diffusivity */
(PID.TID 0000.0001)                 0.000000000000000E+00
(PID.TID 0000.0001)     ;
(PID.TID 0000.0001) PTRACERS_diffKrNr = /* Vertical Diffusivity */
(PID.TID 0000.0001)    23 @  1.000000000000000E-05              /* K =  1: 23 */
(PID.TID 0000.0001)     ;
(PID.TID 0000.0001) PTRACERS_useGMRedi = /* apply GM-Redi */
(PID.TID 0000.0001)                   T
(PID.TID 0000.0001)     ;
(PID.TID 0000.0001) PTRACERS_useDWNSLP = /* apply DOWN-SLOPE Flow */
(PID.TID 0000.0001)                   F
(PID.TID 0000.0001)     ;
(PID.TID 0000.0001) PTRACERS_useKPP = /* apply KPP scheme */
(PID.TID 0000.0001)                   T
(PID.TID 0000.0001)     ;
(PID.TID 0000.0001) PTRACERS_ref = /* Reference vertical profile */
(PID.TID 0000.0001)    23 @  0.000000000000000E+00              /* K =  1: 23 */
(PID.TID 0000.0001)     ;
(PID.TID 0000.0001) PTRACERS_EvPrRn =/* tracer conc. in Evap. & Rain */
(PID.TID 0000.0001)                 1.234567000000000E+05
(PID.TID 0000.0001)     ;
(PID.TID 0000.0001)  -----------------------------------
(PID.TID 0000.0001)  tracer number :   12
(PID.TID 0000.0001) PTRACERS_names = /* Tracer short name */
(PID.TID 0000.0001)               'POC'
(PID.TID 0000.0001)     ;
(PID.TID 0000.0001) PTRACERS_long_names = /* Tracer long name */
(PID.TID 0000.0001)               ''
(PID.TID 0000.0001)     ;
(PID.TID 0000.0001) PTRACERS_ioLabel = /* tracer IO Label */
(PID.TID 0000.0001)               '12'
(PID.TID 0000.0001)     ;
(PID.TID 0000.0001) PTRACERS_advScheme = /* Advection Scheme */
(PID.TID 0000.0001)                      33
(PID.TID 0000.0001)     ;
(PID.TID 0000.0001) PTRACERS_SOM_Advection = /* tracer uses SOM advection scheme */
(PID.TID 0000.0001)                   F
(PID.TID 0000.0001)     ;
(PID.TID 0000.0001) PTRACERS_ImplVertAdv = /* implicit vert. advection flag */
(PID.TID 0000.0001)                   F
(PID.TID 0000.0001)     ;
(PID.TID 0000.0001) PTRACERS_diffKh = /* Laplacian Diffusivity */
(PID.TID 0000.0001)                 0.000000000000000E+00
(PID.TID 0000.0001)     ;
(PID.TID 0000.0001) PTRACERS_diffK4 = /* Biharmonic Diffusivity */
(PID.TID 0000.0001)                 0.000000000000000E+00
(PID.TID 0000.0001)     ;
(PID.TID 0000.0001) PTRACERS_diffKrNr = /* Vertical Diffusivity */
(PID.TID 0000.0001)    23 @  1.000000000000000E-05              /* K =  1: 23 */
(PID.TID 0000.0001)     ;
(PID.TID 0000.0001) PTRACERS_useGMRedi = /* apply GM-Redi */
(PID.TID 0000.0001)                   T
(PID.TID 0000.0001)     ;
(PID.TID 0000.0001) PTRACERS_useDWNSLP = /* apply DOWN-SLOPE Flow */
(PID.TID 0000.0001)                   F
(PID.TID 0000.0001)     ;
(PID.TID 0000.0001) PTRACERS_useKPP = /* apply KPP scheme */
(PID.TID 0000.0001)                   T
(PID.TID 0000.0001)     ;
(PID.TID 0000.0001) PTRACERS_ref = /* Reference vertical profile */
(PID.TID 0000.0001)    23 @  0.000000000000000E+00              /* K =  1: 23 */
(PID.TID 0000.0001)     ;
(PID.TID 0000.0001) PTRACERS_EvPrRn =/* tracer conc. in Evap. & Rain */
(PID.TID 0000.0001)                 1.234567000000000E+05
(PID.TID 0000.0001)     ;
(PID.TID 0000.0001)  -----------------------------------
(PID.TID 0000.0001)  tracer number :   13
(PID.TID 0000.0001) PTRACERS_names = /* Tracer short name */
(PID.TID 0000.0001)               'PON'
(PID.TID 0000.0001)     ;
(PID.TID 0000.0001) PTRACERS_long_names = /* Tracer long name */
(PID.TID 0000.0001)               ''
(PID.TID 0000.0001)     ;
(PID.TID 0000.0001) PTRACERS_ioLabel = /* tracer IO Label */
(PID.TID 0000.0001)               '13'
(PID.TID 0000.0001)     ;
(PID.TID 0000.0001) PTRACERS_advScheme = /* Advection Scheme */
(PID.TID 0000.0001)                      33
(PID.TID 0000.0001)     ;
(PID.TID 0000.0001) PTRACERS_SOM_Advection = /* tracer uses SOM advection scheme */
(PID.TID 0000.0001)                   F
(PID.TID 0000.0001)     ;
(PID.TID 0000.0001) PTRACERS_ImplVertAdv = /* implicit vert. advection flag */
(PID.TID 0000.0001)                   F
(PID.TID 0000.0001)     ;
(PID.TID 0000.0001) PTRACERS_diffKh = /* Laplacian Diffusivity */
(PID.TID 0000.0001)                 0.000000000000000E+00
(PID.TID 0000.0001)     ;
(PID.TID 0000.0001) PTRACERS_diffK4 = /* Biharmonic Diffusivity */
(PID.TID 0000.0001)                 0.000000000000000E+00
(PID.TID 0000.0001)     ;
(PID.TID 0000.0001) PTRACERS_diffKrNr = /* Vertical Diffusivity */
(PID.TID 0000.0001)    23 @  1.000000000000000E-05              /* K =  1: 23 */
(PID.TID 0000.0001)     ;
(PID.TID 0000.0001) PTRACERS_useGMRedi = /* apply GM-Redi */
(PID.TID 0000.0001)                   T
(PID.TID 0000.0001)     ;
(PID.TID 0000.0001) PTRACERS_useDWNSLP = /* apply DOWN-SLOPE Flow */
(PID.TID 0000.0001)                   F
(PID.TID 0000.0001)     ;
(PID.TID 0000.0001) PTRACERS_useKPP = /* apply KPP scheme */
(PID.TID 0000.0001)                   T
(PID.TID 0000.0001)     ;
(PID.TID 0000.0001) PTRACERS_ref = /* Reference vertical profile */
(PID.TID 0000.0001)    23 @  0.000000000000000E+00              /* K =  1: 23 */
(PID.TID 0000.0001)     ;
(PID.TID 0000.0001) PTRACERS_EvPrRn =/* tracer conc. in Evap. & Rain */
(PID.TID 0000.0001)                 1.234567000000000E+05
(PID.TID 0000.0001)     ;
(PID.TID 0000.0001)  -----------------------------------
(PID.TID 0000.0001)  tracer number :   14
(PID.TID 0000.0001) PTRACERS_names = /* Tracer short name */
(PID.TID 0000.0001)               'POP'
(PID.TID 0000.0001)     ;
(PID.TID 0000.0001) PTRACERS_long_names = /* Tracer long name */
(PID.TID 0000.0001)               ''
(PID.TID 0000.0001)     ;
(PID.TID 0000.0001) PTRACERS_ioLabel = /* tracer IO Label */
(PID.TID 0000.0001)               '14'
(PID.TID 0000.0001)     ;
(PID.TID 0000.0001) PTRACERS_advScheme = /* Advection Scheme */
(PID.TID 0000.0001)                      33
(PID.TID 0000.0001)     ;
(PID.TID 0000.0001) PTRACERS_SOM_Advection = /* tracer uses SOM advection scheme */
(PID.TID 0000.0001)                   F
(PID.TID 0000.0001)     ;
(PID.TID 0000.0001) PTRACERS_ImplVertAdv = /* implicit vert. advection flag */
(PID.TID 0000.0001)                   F
(PID.TID 0000.0001)     ;
(PID.TID 0000.0001) PTRACERS_diffKh = /* Laplacian Diffusivity */
(PID.TID 0000.0001)                 0.000000000000000E+00
(PID.TID 0000.0001)     ;
(PID.TID 0000.0001) PTRACERS_diffK4 = /* Biharmonic Diffusivity */
(PID.TID 0000.0001)                 0.000000000000000E+00
(PID.TID 0000.0001)     ;
(PID.TID 0000.0001) PTRACERS_diffKrNr = /* Vertical Diffusivity */
(PID.TID 0000.0001)    23 @  1.000000000000000E-05              /* K =  1: 23 */
(PID.TID 0000.0001)     ;
(PID.TID 0000.0001) PTRACERS_useGMRedi = /* apply GM-Redi */
(PID.TID 0000.0001)                   T
(PID.TID 0000.0001)     ;
(PID.TID 0000.0001) PTRACERS_useDWNSLP = /* apply DOWN-SLOPE Flow */
(PID.TID 0000.0001)                   F
(PID.TID 0000.0001)     ;
(PID.TID 0000.0001) PTRACERS_useKPP = /* apply KPP scheme */
(PID.TID 0000.0001)                   T
(PID.TID 0000.0001)     ;
(PID.TID 0000.0001) PTRACERS_ref = /* Reference vertical profile */
(PID.TID 0000.0001)    23 @  0.000000000000000E+00              /* K =  1: 23 */
(PID.TID 0000.0001)     ;
(PID.TID 0000.0001) PTRACERS_EvPrRn =/* tracer conc. in Evap. & Rain */
(PID.TID 0000.0001)                 1.234567000000000E+05
(PID.TID 0000.0001)     ;
(PID.TID 0000.0001)  -----------------------------------
(PID.TID 0000.0001)  tracer number :   15
(PID.TID 0000.0001) PTRACERS_names = /* Tracer short name */
(PID.TID 0000.0001)               'POSi'
(PID.TID 0000.0001)     ;
(PID.TID 0000.0001) PTRACERS_long_names = /* Tracer long name */
(PID.TID 0000.0001)               ''
(PID.TID 0000.0001)     ;
(PID.TID 0000.0001) PTRACERS_ioLabel = /* tracer IO Label */
(PID.TID 0000.0001)               '15'
(PID.TID 0000.0001)     ;
(PID.TID 0000.0001) PTRACERS_advScheme = /* Advection Scheme */
(PID.TID 0000.0001)                      33
(PID.TID 0000.0001)     ;
(PID.TID 0000.0001) PTRACERS_SOM_Advection = /* tracer uses SOM advection scheme */
(PID.TID 0000.0001)                   F
(PID.TID 0000.0001)     ;
(PID.TID 0000.0001) PTRACERS_ImplVertAdv = /* implicit vert. advection flag */
(PID.TID 0000.0001)                   F
(PID.TID 0000.0001)     ;
(PID.TID 0000.0001) PTRACERS_diffKh = /* Laplacian Diffusivity */
(PID.TID 0000.0001)                 0.000000000000000E+00
(PID.TID 0000.0001)     ;
(PID.TID 0000.0001) PTRACERS_diffK4 = /* Biharmonic Diffusivity */
(PID.TID 0000.0001)                 0.000000000000000E+00
(PID.TID 0000.0001)     ;
(PID.TID 0000.0001) PTRACERS_diffKrNr = /* Vertical Diffusivity */
(PID.TID 0000.0001)    23 @  1.000000000000000E-05              /* K =  1: 23 */
(PID.TID 0000.0001)     ;
(PID.TID 0000.0001) PTRACERS_useGMRedi = /* apply GM-Redi */
(PID.TID 0000.0001)                   T
(PID.TID 0000.0001)     ;
(PID.TID 0000.0001) PTRACERS_useDWNSLP = /* apply DOWN-SLOPE Flow */
(PID.TID 0000.0001)                   F
(PID.TID 0000.0001)     ;
(PID.TID 0000.0001) PTRACERS_useKPP = /* apply KPP scheme */
(PID.TID 0000.0001)                   T
(PID.TID 0000.0001)     ;
(PID.TID 0000.0001) PTRACERS_ref = /* Reference vertical profile */
(PID.TID 0000.0001)    23 @  0.000000000000000E+00              /* K =  1: 23 */
(PID.TID 0000.0001)     ;
(PID.TID 0000.0001) PTRACERS_EvPrRn =/* tracer conc. in Evap. & Rain */
(PID.TID 0000.0001)                 1.234567000000000E+05
(PID.TID 0000.0001)     ;
(PID.TID 0000.0001)  -----------------------------------
(PID.TID 0000.0001)  tracer number :   16
(PID.TID 0000.0001) PTRACERS_names = /* Tracer short name */
(PID.TID 0000.0001)               'POFe'
(PID.TID 0000.0001)     ;
(PID.TID 0000.0001) PTRACERS_long_names = /* Tracer long name */
(PID.TID 0000.0001)               ''
(PID.TID 0000.0001)     ;
(PID.TID 0000.0001) PTRACERS_ioLabel = /* tracer IO Label */
(PID.TID 0000.0001)               '16'
(PID.TID 0000.0001)     ;
(PID.TID 0000.0001) PTRACERS_advScheme = /* Advection Scheme */
(PID.TID 0000.0001)                      33
(PID.TID 0000.0001)     ;
(PID.TID 0000.0001) PTRACERS_SOM_Advection = /* tracer uses SOM advection scheme */
(PID.TID 0000.0001)                   F
(PID.TID 0000.0001)     ;
(PID.TID 0000.0001) PTRACERS_ImplVertAdv = /* implicit vert. advection flag */
(PID.TID 0000.0001)                   F
(PID.TID 0000.0001)     ;
(PID.TID 0000.0001) PTRACERS_diffKh = /* Laplacian Diffusivity */
(PID.TID 0000.0001)                 0.000000000000000E+00
(PID.TID 0000.0001)     ;
(PID.TID 0000.0001) PTRACERS_diffK4 = /* Biharmonic Diffusivity */
(PID.TID 0000.0001)                 0.000000000000000E+00
(PID.TID 0000.0001)     ;
(PID.TID 0000.0001) PTRACERS_diffKrNr = /* Vertical Diffusivity */
(PID.TID 0000.0001)    23 @  1.000000000000000E-05              /* K =  1: 23 */
(PID.TID 0000.0001)     ;
(PID.TID 0000.0001) PTRACERS_useGMRedi = /* apply GM-Redi */
(PID.TID 0000.0001)                   T
(PID.TID 0000.0001)     ;
(PID.TID 0000.0001) PTRACERS_useDWNSLP = /* apply DOWN-SLOPE Flow */
(PID.TID 0000.0001)                   F
(PID.TID 0000.0001)     ;
(PID.TID 0000.0001) PTRACERS_useKPP = /* apply KPP scheme */
(PID.TID 0000.0001)                   T
(PID.TID 0000.0001)     ;
(PID.TID 0000.0001) PTRACERS_ref = /* Reference vertical profile */
(PID.TID 0000.0001)    23 @  0.000000000000000E+00              /* K =  1: 23 */
(PID.TID 0000.0001)     ;
(PID.TID 0000.0001) PTRACERS_EvPrRn =/* tracer conc. in Evap. & Rain */
(PID.TID 0000.0001)                 1.234567000000000E+05
(PID.TID 0000.0001)     ;
(PID.TID 0000.0001)  -----------------------------------
(PID.TID 0000.0001)  tracer number :   17
(PID.TID 0000.0001) PTRACERS_names = /* Tracer short name */
(PID.TID 0000.0001)               'PIC'
(PID.TID 0000.0001)     ;
(PID.TID 0000.0001) PTRACERS_long_names = /* Tracer long name */
(PID.TID 0000.0001)               ''
(PID.TID 0000.0001)     ;
(PID.TID 0000.0001) PTRACERS_ioLabel = /* tracer IO Label */
(PID.TID 0000.0001)               '17'
(PID.TID 0000.0001)     ;
(PID.TID 0000.0001) PTRACERS_advScheme = /* Advection Scheme */
(PID.TID 0000.0001)                      33
(PID.TID 0000.0001)     ;
(PID.TID 0000.0001) PTRACERS_SOM_Advection = /* tracer uses SOM advection scheme */
(PID.TID 0000.0001)                   F
(PID.TID 0000.0001)     ;
(PID.TID 0000.0001) PTRACERS_ImplVertAdv = /* implicit vert. advection flag */
(PID.TID 0000.0001)                   F
(PID.TID 0000.0001)     ;
(PID.TID 0000.0001) PTRACERS_diffKh = /* Laplacian Diffusivity */
(PID.TID 0000.0001)                 0.000000000000000E+00
(PID.TID 0000.0001)     ;
(PID.TID 0000.0001) PTRACERS_diffK4 = /* Biharmonic Diffusivity */
(PID.TID 0000.0001)                 0.000000000000000E+00
(PID.TID 0000.0001)     ;
(PID.TID 0000.0001) PTRACERS_diffKrNr = /* Vertical Diffusivity */
(PID.TID 0000.0001)    23 @  1.000000000000000E-05              /* K =  1: 23 */
(PID.TID 0000.0001)     ;
(PID.TID 0000.0001) PTRACERS_useGMRedi = /* apply GM-Redi */
(PID.TID 0000.0001)                   T
(PID.TID 0000.0001)     ;
(PID.TID 0000.0001) PTRACERS_useDWNSLP = /* apply DOWN-SLOPE Flow */
(PID.TID 0000.0001)                   F
(PID.TID 0000.0001)     ;
(PID.TID 0000.0001) PTRACERS_useKPP = /* apply KPP scheme */
(PID.TID 0000.0001)                   T
(PID.TID 0000.0001)     ;
(PID.TID 0000.0001) PTRACERS_ref = /* Reference vertical profile */
(PID.TID 0000.0001)    23 @  0.000000000000000E+00              /* K =  1: 23 */
(PID.TID 0000.0001)     ;
(PID.TID 0000.0001) PTRACERS_EvPrRn =/* tracer conc. in Evap. & Rain */
(PID.TID 0000.0001)                 1.234567000000000E+05
(PID.TID 0000.0001)     ;
(PID.TID 0000.0001)  -----------------------------------
(PID.TID 0000.0001)  tracer number :   18
(PID.TID 0000.0001) PTRACERS_names = /* Tracer short name */
(PID.TID 0000.0001)               'ALK'
(PID.TID 0000.0001)     ;
(PID.TID 0000.0001) PTRACERS_long_names = /* Tracer long name */
(PID.TID 0000.0001)               ''
(PID.TID 0000.0001)     ;
(PID.TID 0000.0001) PTRACERS_ioLabel = /* tracer IO Label */
(PID.TID 0000.0001)               '18'
(PID.TID 0000.0001)     ;
(PID.TID 0000.0001) PTRACERS_advScheme = /* Advection Scheme */
(PID.TID 0000.0001)                      33
(PID.TID 0000.0001)     ;
(PID.TID 0000.0001) PTRACERS_SOM_Advection = /* tracer uses SOM advection scheme */
(PID.TID 0000.0001)                   F
(PID.TID 0000.0001)     ;
(PID.TID 0000.0001) PTRACERS_ImplVertAdv = /* implicit vert. advection flag */
(PID.TID 0000.0001)                   F
(PID.TID 0000.0001)     ;
(PID.TID 0000.0001) PTRACERS_diffKh = /* Laplacian Diffusivity */
(PID.TID 0000.0001)                 0.000000000000000E+00
(PID.TID 0000.0001)     ;
(PID.TID 0000.0001) PTRACERS_diffK4 = /* Biharmonic Diffusivity */
(PID.TID 0000.0001)                 0.000000000000000E+00
(PID.TID 0000.0001)     ;
(PID.TID 0000.0001) PTRACERS_diffKrNr = /* Vertical Diffusivity */
(PID.TID 0000.0001)    23 @  1.000000000000000E-05              /* K =  1: 23 */
(PID.TID 0000.0001)     ;
(PID.TID 0000.0001) PTRACERS_useGMRedi = /* apply GM-Redi */
(PID.TID 0000.0001)                   T
(PID.TID 0000.0001)     ;
(PID.TID 0000.0001) PTRACERS_useDWNSLP = /* apply DOWN-SLOPE Flow */
(PID.TID 0000.0001)                   F
(PID.TID 0000.0001)     ;
(PID.TID 0000.0001) PTRACERS_useKPP = /* apply KPP scheme */
(PID.TID 0000.0001)                   T
(PID.TID 0000.0001)     ;
(PID.TID 0000.0001) PTRACERS_ref = /* Reference vertical profile */
(PID.TID 0000.0001)    23 @  0.000000000000000E+00              /* K =  1: 23 */
(PID.TID 0000.0001)     ;
(PID.TID 0000.0001) PTRACERS_EvPrRn =/* tracer conc. in Evap. & Rain */
(PID.TID 0000.0001)                 1.234567000000000E+05
(PID.TID 0000.0001)     ;
(PID.TID 0000.0001)  -----------------------------------
(PID.TID 0000.0001)  tracer number :   19
(PID.TID 0000.0001) PTRACERS_names = /* Tracer short name */
(PID.TID 0000.0001)               'O2'
(PID.TID 0000.0001)     ;
(PID.TID 0000.0001) PTRACERS_long_names = /* Tracer long name */
(PID.TID 0000.0001)               ''
(PID.TID 0000.0001)     ;
(PID.TID 0000.0001) PTRACERS_ioLabel = /* tracer IO Label */
(PID.TID 0000.0001)               '19'
(PID.TID 0000.0001)     ;
(PID.TID 0000.0001) PTRACERS_advScheme = /* Advection Scheme */
(PID.TID 0000.0001)                      33
(PID.TID 0000.0001)     ;
(PID.TID 0000.0001) PTRACERS_SOM_Advection = /* tracer uses SOM advection scheme */
(PID.TID 0000.0001)                   F
(PID.TID 0000.0001)     ;
(PID.TID 0000.0001) PTRACERS_ImplVertAdv = /* implicit vert. advection flag */
(PID.TID 0000.0001)                   F
(PID.TID 0000.0001)     ;
(PID.TID 0000.0001) PTRACERS_diffKh = /* Laplacian Diffusivity */
(PID.TID 0000.0001)                 0.000000000000000E+00
(PID.TID 0000.0001)     ;
(PID.TID 0000.0001) PTRACERS_diffK4 = /* Biharmonic Diffusivity */
(PID.TID 0000.0001)                 0.000000000000000E+00
(PID.TID 0000.0001)     ;
(PID.TID 0000.0001) PTRACERS_diffKrNr = /* Vertical Diffusivity */
(PID.TID 0000.0001)    23 @  1.000000000000000E-05              /* K =  1: 23 */
(PID.TID 0000.0001)     ;
(PID.TID 0000.0001) PTRACERS_useGMRedi = /* apply GM-Redi */
(PID.TID 0000.0001)                   T
(PID.TID 0000.0001)     ;
(PID.TID 0000.0001) PTRACERS_useDWNSLP = /* apply DOWN-SLOPE Flow */
(PID.TID 0000.0001)                   F
(PID.TID 0000.0001)     ;
(PID.TID 0000.0001) PTRACERS_useKPP = /* apply KPP scheme */
(PID.TID 0000.0001)                   T
(PID.TID 0000.0001)     ;
(PID.TID 0000.0001) PTRACERS_ref = /* Reference vertical profile */
(PID.TID 0000.0001)    23 @  0.000000000000000E+00              /* K =  1: 23 */
(PID.TID 0000.0001)     ;
(PID.TID 0000.0001) PTRACERS_EvPrRn =/* tracer conc. in Evap. & Rain */
(PID.TID 0000.0001)                 1.234567000000000E+05
(PID.TID 0000.0001)     ;
(PID.TID 0000.0001)  -----------------------------------
(PID.TID 0000.0001)  tracer number :   20
(PID.TID 0000.0001) PTRACERS_names = /* Tracer short name */
(PID.TID 0000.0001)               'c01'
(PID.TID 0000.0001)     ;
(PID.TID 0000.0001) PTRACERS_long_names = /* Tracer long name */
(PID.TID 0000.0001)               ''
(PID.TID 0000.0001)     ;
(PID.TID 0000.0001) PTRACERS_ioLabel = /* tracer IO Label */
(PID.TID 0000.0001)               '20'
(PID.TID 0000.0001)     ;
(PID.TID 0000.0001) PTRACERS_advScheme = /* Advection Scheme */
(PID.TID 0000.0001)                      33
(PID.TID 0000.0001)     ;
(PID.TID 0000.0001) PTRACERS_SOM_Advection = /* tracer uses SOM advection scheme */
(PID.TID 0000.0001)                   F
(PID.TID 0000.0001)     ;
(PID.TID 0000.0001) PTRACERS_ImplVertAdv = /* implicit vert. advection flag */
(PID.TID 0000.0001)                   F
(PID.TID 0000.0001)     ;
(PID.TID 0000.0001) PTRACERS_diffKh = /* Laplacian Diffusivity */
(PID.TID 0000.0001)                 0.000000000000000E+00
(PID.TID 0000.0001)     ;
(PID.TID 0000.0001) PTRACERS_diffK4 = /* Biharmonic Diffusivity */
(PID.TID 0000.0001)                 0.000000000000000E+00
(PID.TID 0000.0001)     ;
(PID.TID 0000.0001) PTRACERS_diffKrNr = /* Vertical Diffusivity */
(PID.TID 0000.0001)    23 @  1.000000000000000E-05              /* K =  1: 23 */
(PID.TID 0000.0001)     ;
(PID.TID 0000.0001) PTRACERS_useGMRedi = /* apply GM-Redi */
(PID.TID 0000.0001)                   T
(PID.TID 0000.0001)     ;
(PID.TID 0000.0001) PTRACERS_useDWNSLP = /* apply DOWN-SLOPE Flow */
(PID.TID 0000.0001)                   F
(PID.TID 0000.0001)     ;
(PID.TID 0000.0001) PTRACERS_useKPP = /* apply KPP scheme */
(PID.TID 0000.0001)                   T
(PID.TID 0000.0001)     ;
(PID.TID 0000.0001) PTRACERS_ref = /* Reference vertical profile */
(PID.TID 0000.0001)    23 @  0.000000000000000E+00              /* K =  1: 23 */
(PID.TID 0000.0001)     ;
(PID.TID 0000.0001) PTRACERS_EvPrRn =/* tracer conc. in Evap. & Rain */
(PID.TID 0000.0001)                 1.234567000000000E+05
(PID.TID 0000.0001)     ;
(PID.TID 0000.0001)  -----------------------------------
(PID.TID 0000.0001)  tracer number :   21
(PID.TID 0000.0001) PTRACERS_names = /* Tracer short name */
(PID.TID 0000.0001)               'c02'
(PID.TID 0000.0001)     ;
(PID.TID 0000.0001) PTRACERS_long_names = /* Tracer long name */
(PID.TID 0000.0001)               ''
(PID.TID 0000.0001)     ;
(PID.TID 0000.0001) PTRACERS_ioLabel = /* tracer IO Label */
(PID.TID 0000.0001)               '21'
(PID.TID 0000.0001)     ;
(PID.TID 0000.0001) PTRACERS_advScheme = /* Advection Scheme */
(PID.TID 0000.0001)                      33
(PID.TID 0000.0001)     ;
(PID.TID 0000.0001) PTRACERS_SOM_Advection = /* tracer uses SOM advection scheme */
(PID.TID 0000.0001)                   F
(PID.TID 0000.0001)     ;
(PID.TID 0000.0001) PTRACERS_ImplVertAdv = /* implicit vert. advection flag */
(PID.TID 0000.0001)                   F
(PID.TID 0000.0001)     ;
(PID.TID 0000.0001) PTRACERS_diffKh = /* Laplacian Diffusivity */
(PID.TID 0000.0001)                 0.000000000000000E+00
(PID.TID 0000.0001)     ;
(PID.TID 0000.0001) PTRACERS_diffK4 = /* Biharmonic Diffusivity */
(PID.TID 0000.0001)                 0.000000000000000E+00
(PID.TID 0000.0001)     ;
(PID.TID 0000.0001) PTRACERS_diffKrNr = /* Vertical Diffusivity */
(PID.TID 0000.0001)    23 @  1.000000000000000E-05              /* K =  1: 23 */
(PID.TID 0000.0001)     ;
(PID.TID 0000.0001) PTRACERS_useGMRedi = /* apply GM-Redi */
(PID.TID 0000.0001)                   T
(PID.TID 0000.0001)     ;
(PID.TID 0000.0001) PTRACERS_useDWNSLP = /* apply DOWN-SLOPE Flow */
(PID.TID 0000.0001)                   F
(PID.TID 0000.0001)     ;
(PID.TID 0000.0001) PTRACERS_useKPP = /* apply KPP scheme */
(PID.TID 0000.0001)                   T
(PID.TID 0000.0001)     ;
(PID.TID 0000.0001) PTRACERS_ref = /* Reference vertical profile */
(PID.TID 0000.0001)    23 @  0.000000000000000E+00              /* K =  1: 23 */
(PID.TID 0000.0001)     ;
(PID.TID 0000.0001) PTRACERS_EvPrRn =/* tracer conc. in Evap. & Rain */
(PID.TID 0000.0001)                 1.234567000000000E+05
(PID.TID 0000.0001)     ;
(PID.TID 0000.0001)  -----------------------------------
(PID.TID 0000.0001)  tracer number :   22
(PID.TID 0000.0001) PTRACERS_names = /* Tracer short name */
(PID.TID 0000.0001)               'c03'
(PID.TID 0000.0001)     ;
(PID.TID 0000.0001) PTRACERS_long_names = /* Tracer long name */
(PID.TID 0000.0001)               ''
(PID.TID 0000.0001)     ;
(PID.TID 0000.0001) PTRACERS_ioLabel = /* tracer IO Label */
(PID.TID 0000.0001)               '22'
(PID.TID 0000.0001)     ;
(PID.TID 0000.0001) PTRACERS_advScheme = /* Advection Scheme */
(PID.TID 0000.0001)                      33
(PID.TID 0000.0001)     ;
(PID.TID 0000.0001) PTRACERS_SOM_Advection = /* tracer uses SOM advection scheme */
(PID.TID 0000.0001)                   F
(PID.TID 0000.0001)     ;
(PID.TID 0000.0001) PTRACERS_ImplVertAdv = /* implicit vert. advection flag */
(PID.TID 0000.0001)                   F
(PID.TID 0000.0001)     ;
(PID.TID 0000.0001) PTRACERS_diffKh = /* Laplacian Diffusivity */
(PID.TID 0000.0001)                 0.000000000000000E+00
(PID.TID 0000.0001)     ;
(PID.TID 0000.0001) PTRACERS_diffK4 = /* Biharmonic Diffusivity */
(PID.TID 0000.0001)                 0.000000000000000E+00
(PID.TID 0000.0001)     ;
(PID.TID 0000.0001) PTRACERS_diffKrNr = /* Vertical Diffusivity */
(PID.TID 0000.0001)    23 @  1.000000000000000E-05              /* K =  1: 23 */
(PID.TID 0000.0001)     ;
(PID.TID 0000.0001) PTRACERS_useGMRedi = /* apply GM-Redi */
(PID.TID 0000.0001)                   T
(PID.TID 0000.0001)     ;
(PID.TID 0000.0001) PTRACERS_useDWNSLP = /* apply DOWN-SLOPE Flow */
(PID.TID 0000.0001)                   F
(PID.TID 0000.0001)     ;
(PID.TID 0000.0001) PTRACERS_useKPP = /* apply KPP scheme */
(PID.TID 0000.0001)                   T
(PID.TID 0000.0001)     ;
(PID.TID 0000.0001) PTRACERS_ref = /* Reference vertical profile */
(PID.TID 0000.0001)    23 @  0.000000000000000E+00              /* K =  1: 23 */
(PID.TID 0000.0001)     ;
(PID.TID 0000.0001) PTRACERS_EvPrRn =/* tracer conc. in Evap. & Rain */
(PID.TID 0000.0001)                 1.234567000000000E+05
(PID.TID 0000.0001)     ;
(PID.TID 0000.0001)  -----------------------------------
(PID.TID 0000.0001)  tracer number :   23
(PID.TID 0000.0001) PTRACERS_names = /* Tracer short name */
(PID.TID 0000.0001)               'c04'
(PID.TID 0000.0001)     ;
(PID.TID 0000.0001) PTRACERS_long_names = /* Tracer long name */
(PID.TID 0000.0001)               ''
(PID.TID 0000.0001)     ;
(PID.TID 0000.0001) PTRACERS_ioLabel = /* tracer IO Label */
(PID.TID 0000.0001)               '23'
(PID.TID 0000.0001)     ;
(PID.TID 0000.0001) PTRACERS_advScheme = /* Advection Scheme */
(PID.TID 0000.0001)                      33
(PID.TID 0000.0001)     ;
(PID.TID 0000.0001) PTRACERS_SOM_Advection = /* tracer uses SOM advection scheme */
(PID.TID 0000.0001)                   F
(PID.TID 0000.0001)     ;
(PID.TID 0000.0001) PTRACERS_ImplVertAdv = /* implicit vert. advection flag */
(PID.TID 0000.0001)                   F
(PID.TID 0000.0001)     ;
(PID.TID 0000.0001) PTRACERS_diffKh = /* Laplacian Diffusivity */
(PID.TID 0000.0001)                 0.000000000000000E+00
(PID.TID 0000.0001)     ;
(PID.TID 0000.0001) PTRACERS_diffK4 = /* Biharmonic Diffusivity */
(PID.TID 0000.0001)                 0.000000000000000E+00
(PID.TID 0000.0001)     ;
(PID.TID 0000.0001) PTRACERS_diffKrNr = /* Vertical Diffusivity */
(PID.TID 0000.0001)    23 @  1.000000000000000E-05              /* K =  1: 23 */
(PID.TID 0000.0001)     ;
(PID.TID 0000.0001) PTRACERS_useGMRedi = /* apply GM-Redi */
(PID.TID 0000.0001)                   T
(PID.TID 0000.0001)     ;
(PID.TID 0000.0001) PTRACERS_useDWNSLP = /* apply DOWN-SLOPE Flow */
(PID.TID 0000.0001)                   F
(PID.TID 0000.0001)     ;
(PID.TID 0000.0001) PTRACERS_useKPP = /* apply KPP scheme */
(PID.TID 0000.0001)                   T
(PID.TID 0000.0001)     ;
(PID.TID 0000.0001) PTRACERS_ref = /* Reference vertical profile */
(PID.TID 0000.0001)    23 @  0.000000000000000E+00              /* K =  1: 23 */
(PID.TID 0000.0001)     ;
(PID.TID 0000.0001) PTRACERS_EvPrRn =/* tracer conc. in Evap. & Rain */
(PID.TID 0000.0001)                 1.234567000000000E+05
(PID.TID 0000.0001)     ;
(PID.TID 0000.0001)  -----------------------------------
(PID.TID 0000.0001)  tracer number :   24
(PID.TID 0000.0001) PTRACERS_names = /* Tracer short name */
(PID.TID 0000.0001)               'c05'
(PID.TID 0000.0001)     ;
(PID.TID 0000.0001) PTRACERS_long_names = /* Tracer long name */
(PID.TID 0000.0001)               ''
(PID.TID 0000.0001)     ;
(PID.TID 0000.0001) PTRACERS_ioLabel = /* tracer IO Label */
(PID.TID 0000.0001)               '24'
(PID.TID 0000.0001)     ;
(PID.TID 0000.0001) PTRACERS_advScheme = /* Advection Scheme */
(PID.TID 0000.0001)                      33
(PID.TID 0000.0001)     ;
(PID.TID 0000.0001) PTRACERS_SOM_Advection = /* tracer uses SOM advection scheme */
(PID.TID 0000.0001)                   F
(PID.TID 0000.0001)     ;
(PID.TID 0000.0001) PTRACERS_ImplVertAdv = /* implicit vert. advection flag */
(PID.TID 0000.0001)                   F
(PID.TID 0000.0001)     ;
(PID.TID 0000.0001) PTRACERS_diffKh = /* Laplacian Diffusivity */
(PID.TID 0000.0001)                 0.000000000000000E+00
(PID.TID 0000.0001)     ;
(PID.TID 0000.0001) PTRACERS_diffK4 = /* Biharmonic Diffusivity */
(PID.TID 0000.0001)                 0.000000000000000E+00
(PID.TID 0000.0001)     ;
(PID.TID 0000.0001) PTRACERS_diffKrNr = /* Vertical Diffusivity */
(PID.TID 0000.0001)    23 @  1.000000000000000E-05              /* K =  1: 23 */
(PID.TID 0000.0001)     ;
(PID.TID 0000.0001) PTRACERS_useGMRedi = /* apply GM-Redi */
(PID.TID 0000.0001)                   T
(PID.TID 0000.0001)     ;
(PID.TID 0000.0001) PTRACERS_useDWNSLP = /* apply DOWN-SLOPE Flow */
(PID.TID 0000.0001)                   F
(PID.TID 0000.0001)     ;
(PID.TID 0000.0001) PTRACERS_useKPP = /* apply KPP scheme */
(PID.TID 0000.0001)                   T
(PID.TID 0000.0001)     ;
(PID.TID 0000.0001) PTRACERS_ref = /* Reference vertical profile */
(PID.TID 0000.0001)    23 @  0.000000000000000E+00              /* K =  1: 23 */
(PID.TID 0000.0001)     ;
(PID.TID 0000.0001) PTRACERS_EvPrRn =/* tracer conc. in Evap. & Rain */
(PID.TID 0000.0001)                 1.234567000000000E+05
(PID.TID 0000.0001)     ;
(PID.TID 0000.0001)  -----------------------------------
(PID.TID 0000.0001)  tracer number :   25
(PID.TID 0000.0001) PTRACERS_names = /* Tracer short name */
(PID.TID 0000.0001)               'c06'
(PID.TID 0000.0001)     ;
(PID.TID 0000.0001) PTRACERS_long_names = /* Tracer long name */
(PID.TID 0000.0001)               ''
(PID.TID 0000.0001)     ;
(PID.TID 0000.0001) PTRACERS_ioLabel = /* tracer IO Label */
(PID.TID 0000.0001)               '25'
(PID.TID 0000.0001)     ;
(PID.TID 0000.0001) PTRACERS_advScheme = /* Advection Scheme */
(PID.TID 0000.0001)                      33
(PID.TID 0000.0001)     ;
(PID.TID 0000.0001) PTRACERS_SOM_Advection = /* tracer uses SOM advection scheme */
(PID.TID 0000.0001)                   F
(PID.TID 0000.0001)     ;
(PID.TID 0000.0001) PTRACERS_ImplVertAdv = /* implicit vert. advection flag */
(PID.TID 0000.0001)                   F
(PID.TID 0000.0001)     ;
(PID.TID 0000.0001) PTRACERS_diffKh = /* Laplacian Diffusivity */
(PID.TID 0000.0001)                 0.000000000000000E+00
(PID.TID 0000.0001)     ;
(PID.TID 0000.0001) PTRACERS_diffK4 = /* Biharmonic Diffusivity */
(PID.TID 0000.0001)                 0.000000000000000E+00
(PID.TID 0000.0001)     ;
(PID.TID 0000.0001) PTRACERS_diffKrNr = /* Vertical Diffusivity */
(PID.TID 0000.0001)    23 @  1.000000000000000E-05              /* K =  1: 23 */
(PID.TID 0000.0001)     ;
(PID.TID 0000.0001) PTRACERS_useGMRedi = /* apply GM-Redi */
(PID.TID 0000.0001)                   T
(PID.TID 0000.0001)     ;
(PID.TID 0000.0001) PTRACERS_useDWNSLP = /* apply DOWN-SLOPE Flow */
(PID.TID 0000.0001)                   F
(PID.TID 0000.0001)     ;
(PID.TID 0000.0001) PTRACERS_useKPP = /* apply KPP scheme */
(PID.TID 0000.0001)                   T
(PID.TID 0000.0001)     ;
(PID.TID 0000.0001) PTRACERS_ref = /* Reference vertical profile */
(PID.TID 0000.0001)    23 @  0.000000000000000E+00              /* K =  1: 23 */
(PID.TID 0000.0001)     ;
(PID.TID 0000.0001) PTRACERS_EvPrRn =/* tracer conc. in Evap. & Rain */
(PID.TID 0000.0001)                 1.234567000000000E+05
(PID.TID 0000.0001)     ;
(PID.TID 0000.0001)  -----------------------------------
(PID.TID 0000.0001)  tracer number :   26
(PID.TID 0000.0001) PTRACERS_names = /* Tracer short name */
(PID.TID 0000.0001)               'c07'
(PID.TID 0000.0001)     ;
(PID.TID 0000.0001) PTRACERS_long_names = /* Tracer long name */
(PID.TID 0000.0001)               ''
(PID.TID 0000.0001)     ;
(PID.TID 0000.0001) PTRACERS_ioLabel = /* tracer IO Label */
(PID.TID 0000.0001)               '26'
(PID.TID 0000.0001)     ;
(PID.TID 0000.0001) PTRACERS_advScheme = /* Advection Scheme */
(PID.TID 0000.0001)                      33
(PID.TID 0000.0001)     ;
(PID.TID 0000.0001) PTRACERS_SOM_Advection = /* tracer uses SOM advection scheme */
(PID.TID 0000.0001)                   F
(PID.TID 0000.0001)     ;
(PID.TID 0000.0001) PTRACERS_ImplVertAdv = /* implicit vert. advection flag */
(PID.TID 0000.0001)                   F
(PID.TID 0000.0001)     ;
(PID.TID 0000.0001) PTRACERS_diffKh = /* Laplacian Diffusivity */
(PID.TID 0000.0001)                 0.000000000000000E+00
(PID.TID 0000.0001)     ;
(PID.TID 0000.0001) PTRACERS_diffK4 = /* Biharmonic Diffusivity */
(PID.TID 0000.0001)                 0.000000000000000E+00
(PID.TID 0000.0001)     ;
(PID.TID 0000.0001) PTRACERS_diffKrNr = /* Vertical Diffusivity */
(PID.TID 0000.0001)    23 @  1.000000000000000E-05              /* K =  1: 23 */
(PID.TID 0000.0001)     ;
(PID.TID 0000.0001) PTRACERS_useGMRedi = /* apply GM-Redi */
(PID.TID 0000.0001)                   T
(PID.TID 0000.0001)     ;
(PID.TID 0000.0001) PTRACERS_useDWNSLP = /* apply DOWN-SLOPE Flow */
(PID.TID 0000.0001)                   F
(PID.TID 0000.0001)     ;
(PID.TID 0000.0001) PTRACERS_useKPP = /* apply KPP scheme */
(PID.TID 0000.0001)                   T
(PID.TID 0000.0001)     ;
(PID.TID 0000.0001) PTRACERS_ref = /* Reference vertical profile */
(PID.TID 0000.0001)    23 @  0.000000000000000E+00              /* K =  1: 23 */
(PID.TID 0000.0001)     ;
(PID.TID 0000.0001) PTRACERS_EvPrRn =/* tracer conc. in Evap. & Rain */
(PID.TID 0000.0001)                 1.234567000000000E+05
(PID.TID 0000.0001)     ;
(PID.TID 0000.0001)  -----------------------------------
(PID.TID 0000.0001)  tracer number :   27
(PID.TID 0000.0001) PTRACERS_names = /* Tracer short name */
(PID.TID 0000.0001)               'c08'
(PID.TID 0000.0001)     ;
(PID.TID 0000.0001) PTRACERS_long_names = /* Tracer long name */
(PID.TID 0000.0001)               ''
(PID.TID 0000.0001)     ;
(PID.TID 0000.0001) PTRACERS_ioLabel = /* tracer IO Label */
(PID.TID 0000.0001)               '27'
(PID.TID 0000.0001)     ;
(PID.TID 0000.0001) PTRACERS_advScheme = /* Advection Scheme */
(PID.TID 0000.0001)                      33
(PID.TID 0000.0001)     ;
(PID.TID 0000.0001) PTRACERS_SOM_Advection = /* tracer uses SOM advection scheme */
(PID.TID 0000.0001)                   F
(PID.TID 0000.0001)     ;
(PID.TID 0000.0001) PTRACERS_ImplVertAdv = /* implicit vert. advection flag */
(PID.TID 0000.0001)                   F
(PID.TID 0000.0001)     ;
(PID.TID 0000.0001) PTRACERS_diffKh = /* Laplacian Diffusivity */
(PID.TID 0000.0001)                 0.000000000000000E+00
(PID.TID 0000.0001)     ;
(PID.TID 0000.0001) PTRACERS_diffK4 = /* Biharmonic Diffusivity */
(PID.TID 0000.0001)                 0.000000000000000E+00
(PID.TID 0000.0001)     ;
(PID.TID 0000.0001) PTRACERS_diffKrNr = /* Vertical Diffusivity */
(PID.TID 0000.0001)    23 @  1.000000000000000E-05              /* K =  1: 23 */
(PID.TID 0000.0001)     ;
(PID.TID 0000.0001) PTRACERS_useGMRedi = /* apply GM-Redi */
(PID.TID 0000.0001)                   T
(PID.TID 0000.0001)     ;
(PID.TID 0000.0001) PTRACERS_useDWNSLP = /* apply DOWN-SLOPE Flow */
(PID.TID 0000.0001)                   F
(PID.TID 0000.0001)     ;
(PID.TID 0000.0001) PTRACERS_useKPP = /* apply KPP scheme */
(PID.TID 0000.0001)                   T
(PID.TID 0000.0001)     ;
(PID.TID 0000.0001) PTRACERS_ref = /* Reference vertical profile */
(PID.TID 0000.0001)    23 @  0.000000000000000E+00              /* K =  1: 23 */
(PID.TID 0000.0001)     ;
(PID.TID 0000.0001) PTRACERS_EvPrRn =/* tracer conc. in Evap. & Rain */
(PID.TID 0000.0001)                 1.234567000000000E+05
(PID.TID 0000.0001)     ;
(PID.TID 0000.0001)  -----------------------------------
(PID.TID 0000.0001)  tracer number :   28
(PID.TID 0000.0001) PTRACERS_names = /* Tracer short name */
(PID.TID 0000.0001)               'c09'
(PID.TID 0000.0001)     ;
(PID.TID 0000.0001) PTRACERS_long_names = /* Tracer long name */
(PID.TID 0000.0001)               ''
(PID.TID 0000.0001)     ;
(PID.TID 0000.0001) PTRACERS_ioLabel = /* tracer IO Label */
(PID.TID 0000.0001)               '28'
(PID.TID 0000.0001)     ;
(PID.TID 0000.0001) PTRACERS_advScheme = /* Advection Scheme */
(PID.TID 0000.0001)                      33
(PID.TID 0000.0001)     ;
(PID.TID 0000.0001) PTRACERS_SOM_Advection = /* tracer uses SOM advection scheme */
(PID.TID 0000.0001)                   F
(PID.TID 0000.0001)     ;
(PID.TID 0000.0001) PTRACERS_ImplVertAdv = /* implicit vert. advection flag */
(PID.TID 0000.0001)                   F
(PID.TID 0000.0001)     ;
(PID.TID 0000.0001) PTRACERS_diffKh = /* Laplacian Diffusivity */
(PID.TID 0000.0001)                 0.000000000000000E+00
(PID.TID 0000.0001)     ;
(PID.TID 0000.0001) PTRACERS_diffK4 = /* Biharmonic Diffusivity */
(PID.TID 0000.0001)                 0.000000000000000E+00
(PID.TID 0000.0001)     ;
(PID.TID 0000.0001) PTRACERS_diffKrNr = /* Vertical Diffusivity */
(PID.TID 0000.0001)    23 @  1.000000000000000E-05              /* K =  1: 23 */
(PID.TID 0000.0001)     ;
(PID.TID 0000.0001) PTRACERS_useGMRedi = /* apply GM-Redi */
(PID.TID 0000.0001)                   T
(PID.TID 0000.0001)     ;
(PID.TID 0000.0001) PTRACERS_useDWNSLP = /* apply DOWN-SLOPE Flow */
(PID.TID 0000.0001)                   F
(PID.TID 0000.0001)     ;
(PID.TID 0000.0001) PTRACERS_useKPP = /* apply KPP scheme */
(PID.TID 0000.0001)                   T
(PID.TID 0000.0001)     ;
(PID.TID 0000.0001) PTRACERS_ref = /* Reference vertical profile */
(PID.TID 0000.0001)    23 @  0.000000000000000E+00              /* K =  1: 23 */
(PID.TID 0000.0001)     ;
(PID.TID 0000.0001) PTRACERS_EvPrRn =/* tracer conc. in Evap. & Rain */
(PID.TID 0000.0001)                 1.234567000000000E+05
(PID.TID 0000.0001)     ;
(PID.TID 0000.0001)  -----------------------------------
(PID.TID 0000.0001)  tracer number :   29
(PID.TID 0000.0001) PTRACERS_names = /* Tracer short name */
(PID.TID 0000.0001)               'c10'
(PID.TID 0000.0001)     ;
(PID.TID 0000.0001) PTRACERS_long_names = /* Tracer long name */
(PID.TID 0000.0001)               ''
(PID.TID 0000.0001)     ;
(PID.TID 0000.0001) PTRACERS_ioLabel = /* tracer IO Label */
(PID.TID 0000.0001)               '29'
(PID.TID 0000.0001)     ;
(PID.TID 0000.0001) PTRACERS_advScheme = /* Advection Scheme */
(PID.TID 0000.0001)                      33
(PID.TID 0000.0001)     ;
(PID.TID 0000.0001) PTRACERS_SOM_Advection = /* tracer uses SOM advection scheme */
(PID.TID 0000.0001)                   F
(PID.TID 0000.0001)     ;
(PID.TID 0000.0001) PTRACERS_ImplVertAdv = /* implicit vert. advection flag */
(PID.TID 0000.0001)                   F
(PID.TID 0000.0001)     ;
(PID.TID 0000.0001) PTRACERS_diffKh = /* Laplacian Diffusivity */
(PID.TID 0000.0001)                 0.000000000000000E+00
(PID.TID 0000.0001)     ;
(PID.TID 0000.0001) PTRACERS_diffK4 = /* Biharmonic Diffusivity */
(PID.TID 0000.0001)                 0.000000000000000E+00
(PID.TID 0000.0001)     ;
(PID.TID 0000.0001) PTRACERS_diffKrNr = /* Vertical Diffusivity */
(PID.TID 0000.0001)    23 @  1.000000000000000E-05              /* K =  1: 23 */
(PID.TID 0000.0001)     ;
(PID.TID 0000.0001) PTRACERS_useGMRedi = /* apply GM-Redi */
(PID.TID 0000.0001)                   T
(PID.TID 0000.0001)     ;
(PID.TID 0000.0001) PTRACERS_useDWNSLP = /* apply DOWN-SLOPE Flow */
(PID.TID 0000.0001)                   F
(PID.TID 0000.0001)     ;
(PID.TID 0000.0001) PTRACERS_useKPP = /* apply KPP scheme */
(PID.TID 0000.0001)                   T
(PID.TID 0000.0001)     ;
(PID.TID 0000.0001) PTRACERS_ref = /* Reference vertical profile */
(PID.TID 0000.0001)    23 @  0.000000000000000E+00              /* K =  1: 23 */
(PID.TID 0000.0001)     ;
(PID.TID 0000.0001) PTRACERS_EvPrRn =/* tracer conc. in Evap. & Rain */
(PID.TID 0000.0001)                 1.234567000000000E+05
(PID.TID 0000.0001)     ;
(PID.TID 0000.0001)  -----------------------------------
(PID.TID 0000.0001)  tracer number :   30
(PID.TID 0000.0001) PTRACERS_names = /* Tracer short name */
(PID.TID 0000.0001)               'c11'
(PID.TID 0000.0001)     ;
(PID.TID 0000.0001) PTRACERS_long_names = /* Tracer long name */
(PID.TID 0000.0001)               ''
(PID.TID 0000.0001)     ;
(PID.TID 0000.0001) PTRACERS_ioLabel = /* tracer IO Label */
(PID.TID 0000.0001)               '30'
(PID.TID 0000.0001)     ;
(PID.TID 0000.0001) PTRACERS_advScheme = /* Advection Scheme */
(PID.TID 0000.0001)                      33
(PID.TID 0000.0001)     ;
(PID.TID 0000.0001) PTRACERS_SOM_Advection = /* tracer uses SOM advection scheme */
(PID.TID 0000.0001)                   F
(PID.TID 0000.0001)     ;
(PID.TID 0000.0001) PTRACERS_ImplVertAdv = /* implicit vert. advection flag */
(PID.TID 0000.0001)                   F
(PID.TID 0000.0001)     ;
(PID.TID 0000.0001) PTRACERS_diffKh = /* Laplacian Diffusivity */
(PID.TID 0000.0001)                 0.000000000000000E+00
(PID.TID 0000.0001)     ;
(PID.TID 0000.0001) PTRACERS_diffK4 = /* Biharmonic Diffusivity */
(PID.TID 0000.0001)                 0.000000000000000E+00
(PID.TID 0000.0001)     ;
(PID.TID 0000.0001) PTRACERS_diffKrNr = /* Vertical Diffusivity */
(PID.TID 0000.0001)    23 @  1.000000000000000E-05              /* K =  1: 23 */
(PID.TID 0000.0001)     ;
(PID.TID 0000.0001) PTRACERS_useGMRedi = /* apply GM-Redi */
(PID.TID 0000.0001)                   T
(PID.TID 0000.0001)     ;
(PID.TID 0000.0001) PTRACERS_useDWNSLP = /* apply DOWN-SLOPE Flow */
(PID.TID 0000.0001)                   F
(PID.TID 0000.0001)     ;
(PID.TID 0000.0001) PTRACERS_useKPP = /* apply KPP scheme */
(PID.TID 0000.0001)                   T
(PID.TID 0000.0001)     ;
(PID.TID 0000.0001) PTRACERS_ref = /* Reference vertical profile */
(PID.TID 0000.0001)    23 @  0.000000000000000E+00              /* K =  1: 23 */
(PID.TID 0000.0001)     ;
(PID.TID 0000.0001) PTRACERS_EvPrRn =/* tracer conc. in Evap. & Rain */
(PID.TID 0000.0001)                 1.234567000000000E+05
(PID.TID 0000.0001)     ;
(PID.TID 0000.0001)  -----------------------------------
(PID.TID 0000.0001)  tracer number :   31
(PID.TID 0000.0001) PTRACERS_names = /* Tracer short name */
(PID.TID 0000.0001)               'c12'
(PID.TID 0000.0001)     ;
(PID.TID 0000.0001) PTRACERS_long_names = /* Tracer long name */
(PID.TID 0000.0001)               ''
(PID.TID 0000.0001)     ;
(PID.TID 0000.0001) PTRACERS_ioLabel = /* tracer IO Label */
(PID.TID 0000.0001)               '31'
(PID.TID 0000.0001)     ;
(PID.TID 0000.0001) PTRACERS_advScheme = /* Advection Scheme */
(PID.TID 0000.0001)                      33
(PID.TID 0000.0001)     ;
(PID.TID 0000.0001) PTRACERS_SOM_Advection = /* tracer uses SOM advection scheme */
(PID.TID 0000.0001)                   F
(PID.TID 0000.0001)     ;
(PID.TID 0000.0001) PTRACERS_ImplVertAdv = /* implicit vert. advection flag */
(PID.TID 0000.0001)                   F
(PID.TID 0000.0001)     ;
(PID.TID 0000.0001) PTRACERS_diffKh = /* Laplacian Diffusivity */
(PID.TID 0000.0001)                 0.000000000000000E+00
(PID.TID 0000.0001)     ;
(PID.TID 0000.0001) PTRACERS_diffK4 = /* Biharmonic Diffusivity */
(PID.TID 0000.0001)                 0.000000000000000E+00
(PID.TID 0000.0001)     ;
(PID.TID 0000.0001) PTRACERS_diffKrNr = /* Vertical Diffusivity */
(PID.TID 0000.0001)    23 @  1.000000000000000E-05              /* K =  1: 23 */
(PID.TID 0000.0001)     ;
(PID.TID 0000.0001) PTRACERS_useGMRedi = /* apply GM-Redi */
(PID.TID 0000.0001)                   T
(PID.TID 0000.0001)     ;
(PID.TID 0000.0001) PTRACERS_useDWNSLP = /* apply DOWN-SLOPE Flow */
(PID.TID 0000.0001)                   F
(PID.TID 0000.0001)     ;
(PID.TID 0000.0001) PTRACERS_useKPP = /* apply KPP scheme */
(PID.TID 0000.0001)                   T
(PID.TID 0000.0001)     ;
(PID.TID 0000.0001) PTRACERS_ref = /* Reference vertical profile */
(PID.TID 0000.0001)    23 @  0.000000000000000E+00              /* K =  1: 23 */
(PID.TID 0000.0001)     ;
(PID.TID 0000.0001) PTRACERS_EvPrRn =/* tracer conc. in Evap. & Rain */
(PID.TID 0000.0001)                 1.234567000000000E+05
(PID.TID 0000.0001)     ;
(PID.TID 0000.0001)  -----------------------------------
(PID.TID 0000.0001)  tracer number :   32
(PID.TID 0000.0001) PTRACERS_names = /* Tracer short name */
(PID.TID 0000.0001)               'c13'
(PID.TID 0000.0001)     ;
(PID.TID 0000.0001) PTRACERS_long_names = /* Tracer long name */
(PID.TID 0000.0001)               ''
(PID.TID 0000.0001)     ;
(PID.TID 0000.0001) PTRACERS_ioLabel = /* tracer IO Label */
(PID.TID 0000.0001)               '32'
(PID.TID 0000.0001)     ;
(PID.TID 0000.0001) PTRACERS_advScheme = /* Advection Scheme */
(PID.TID 0000.0001)                      33
(PID.TID 0000.0001)     ;
(PID.TID 0000.0001) PTRACERS_SOM_Advection = /* tracer uses SOM advection scheme */
(PID.TID 0000.0001)                   F
(PID.TID 0000.0001)     ;
(PID.TID 0000.0001) PTRACERS_ImplVertAdv = /* implicit vert. advection flag */
(PID.TID 0000.0001)                   F
(PID.TID 0000.0001)     ;
(PID.TID 0000.0001) PTRACERS_diffKh = /* Laplacian Diffusivity */
(PID.TID 0000.0001)                 0.000000000000000E+00
(PID.TID 0000.0001)     ;
(PID.TID 0000.0001) PTRACERS_diffK4 = /* Biharmonic Diffusivity */
(PID.TID 0000.0001)                 0.000000000000000E+00
(PID.TID 0000.0001)     ;
(PID.TID 0000.0001) PTRACERS_diffKrNr = /* Vertical Diffusivity */
(PID.TID 0000.0001)    23 @  1.000000000000000E-05              /* K =  1: 23 */
(PID.TID 0000.0001)     ;
(PID.TID 0000.0001) PTRACERS_useGMRedi = /* apply GM-Redi */
(PID.TID 0000.0001)                   T
(PID.TID 0000.0001)     ;
(PID.TID 0000.0001) PTRACERS_useDWNSLP = /* apply DOWN-SLOPE Flow */
(PID.TID 0000.0001)                   F
(PID.TID 0000.0001)     ;
(PID.TID 0000.0001) PTRACERS_useKPP = /* apply KPP scheme */
(PID.TID 0000.0001)                   T
(PID.TID 0000.0001)     ;
(PID.TID 0000.0001) PTRACERS_ref = /* Reference vertical profile */
(PID.TID 0000.0001)    23 @  0.000000000000000E+00              /* K =  1: 23 */
(PID.TID 0000.0001)     ;
(PID.TID 0000.0001) PTRACERS_EvPrRn =/* tracer conc. in Evap. & Rain */
(PID.TID 0000.0001)                 1.234567000000000E+05
(PID.TID 0000.0001)     ;
(PID.TID 0000.0001)  -----------------------------------
(PID.TID 0000.0001)  tracer number :   33
(PID.TID 0000.0001) PTRACERS_names = /* Tracer short name */
(PID.TID 0000.0001)               'c14'
(PID.TID 0000.0001)     ;
(PID.TID 0000.0001) PTRACERS_long_names = /* Tracer long name */
(PID.TID 0000.0001)               ''
(PID.TID 0000.0001)     ;
(PID.TID 0000.0001) PTRACERS_ioLabel = /* tracer IO Label */
(PID.TID 0000.0001)               '33'
(PID.TID 0000.0001)     ;
(PID.TID 0000.0001) PTRACERS_advScheme = /* Advection Scheme */
(PID.TID 0000.0001)                      33
(PID.TID 0000.0001)     ;
(PID.TID 0000.0001) PTRACERS_SOM_Advection = /* tracer uses SOM advection scheme */
(PID.TID 0000.0001)                   F
(PID.TID 0000.0001)     ;
(PID.TID 0000.0001) PTRACERS_ImplVertAdv = /* implicit vert. advection flag */
(PID.TID 0000.0001)                   F
(PID.TID 0000.0001)     ;
(PID.TID 0000.0001) PTRACERS_diffKh = /* Laplacian Diffusivity */
(PID.TID 0000.0001)                 0.000000000000000E+00
(PID.TID 0000.0001)     ;
(PID.TID 0000.0001) PTRACERS_diffK4 = /* Biharmonic Diffusivity */
(PID.TID 0000.0001)                 0.000000000000000E+00
(PID.TID 0000.0001)     ;
(PID.TID 0000.0001) PTRACERS_diffKrNr = /* Vertical Diffusivity */
(PID.TID 0000.0001)    23 @  1.000000000000000E-05              /* K =  1: 23 */
(PID.TID 0000.0001)     ;
(PID.TID 0000.0001) PTRACERS_useGMRedi = /* apply GM-Redi */
(PID.TID 0000.0001)                   T
(PID.TID 0000.0001)     ;
(PID.TID 0000.0001) PTRACERS_useDWNSLP = /* apply DOWN-SLOPE Flow */
(PID.TID 0000.0001)                   F
(PID.TID 0000.0001)     ;
(PID.TID 0000.0001) PTRACERS_useKPP = /* apply KPP scheme */
(PID.TID 0000.0001)                   T
(PID.TID 0000.0001)     ;
(PID.TID 0000.0001) PTRACERS_ref = /* Reference vertical profile */
(PID.TID 0000.0001)    23 @  0.000000000000000E+00              /* K =  1: 23 */
(PID.TID 0000.0001)     ;
(PID.TID 0000.0001) PTRACERS_EvPrRn =/* tracer conc. in Evap. & Rain */
(PID.TID 0000.0001)                 1.234567000000000E+05
(PID.TID 0000.0001)     ;
(PID.TID 0000.0001)  -----------------------------------
(PID.TID 0000.0001)  tracer number :   34
(PID.TID 0000.0001) PTRACERS_names = /* Tracer short name */
(PID.TID 0000.0001)               'c15'
(PID.TID 0000.0001)     ;
(PID.TID 0000.0001) PTRACERS_long_names = /* Tracer long name */
(PID.TID 0000.0001)               ''
(PID.TID 0000.0001)     ;
(PID.TID 0000.0001) PTRACERS_ioLabel = /* tracer IO Label */
(PID.TID 0000.0001)               '34'
(PID.TID 0000.0001)     ;
(PID.TID 0000.0001) PTRACERS_advScheme = /* Advection Scheme */
(PID.TID 0000.0001)                      33
(PID.TID 0000.0001)     ;
(PID.TID 0000.0001) PTRACERS_SOM_Advection = /* tracer uses SOM advection scheme */
(PID.TID 0000.0001)                   F
(PID.TID 0000.0001)     ;
(PID.TID 0000.0001) PTRACERS_ImplVertAdv = /* implicit vert. advection flag */
(PID.TID 0000.0001)                   F
(PID.TID 0000.0001)     ;
(PID.TID 0000.0001) PTRACERS_diffKh = /* Laplacian Diffusivity */
(PID.TID 0000.0001)                 0.000000000000000E+00
(PID.TID 0000.0001)     ;
(PID.TID 0000.0001) PTRACERS_diffK4 = /* Biharmonic Diffusivity */
(PID.TID 0000.0001)                 0.000000000000000E+00
(PID.TID 0000.0001)     ;
(PID.TID 0000.0001) PTRACERS_diffKrNr = /* Vertical Diffusivity */
(PID.TID 0000.0001)    23 @  1.000000000000000E-05              /* K =  1: 23 */
(PID.TID 0000.0001)     ;
(PID.TID 0000.0001) PTRACERS_useGMRedi = /* apply GM-Redi */
(PID.TID 0000.0001)                   T
(PID.TID 0000.0001)     ;
(PID.TID 0000.0001) PTRACERS_useDWNSLP = /* apply DOWN-SLOPE Flow */
(PID.TID 0000.0001)                   F
(PID.TID 0000.0001)     ;
(PID.TID 0000.0001) PTRACERS_useKPP = /* apply KPP scheme */
(PID.TID 0000.0001)                   T
(PID.TID 0000.0001)     ;
(PID.TID 0000.0001) PTRACERS_ref = /* Reference vertical profile */
(PID.TID 0000.0001)    23 @  0.000000000000000E+00              /* K =  1: 23 */
(PID.TID 0000.0001)     ;
(PID.TID 0000.0001) PTRACERS_EvPrRn =/* tracer conc. in Evap. & Rain */
(PID.TID 0000.0001)                 1.234567000000000E+05
(PID.TID 0000.0001)     ;
(PID.TID 0000.0001)  -----------------------------------
(PID.TID 0000.0001)  tracer number :   35
(PID.TID 0000.0001) PTRACERS_names = /* Tracer short name */
(PID.TID 0000.0001)               'c16'
(PID.TID 0000.0001)     ;
(PID.TID 0000.0001) PTRACERS_long_names = /* Tracer long name */
(PID.TID 0000.0001)               ''
(PID.TID 0000.0001)     ;
(PID.TID 0000.0001) PTRACERS_ioLabel = /* tracer IO Label */
(PID.TID 0000.0001)               '35'
(PID.TID 0000.0001)     ;
(PID.TID 0000.0001) PTRACERS_advScheme = /* Advection Scheme */
(PID.TID 0000.0001)                      33
(PID.TID 0000.0001)     ;
(PID.TID 0000.0001) PTRACERS_SOM_Advection = /* tracer uses SOM advection scheme */
(PID.TID 0000.0001)                   F
(PID.TID 0000.0001)     ;
(PID.TID 0000.0001) PTRACERS_ImplVertAdv = /* implicit vert. advection flag */
(PID.TID 0000.0001)                   F
(PID.TID 0000.0001)     ;
(PID.TID 0000.0001) PTRACERS_diffKh = /* Laplacian Diffusivity */
(PID.TID 0000.0001)                 0.000000000000000E+00
(PID.TID 0000.0001)     ;
(PID.TID 0000.0001) PTRACERS_diffK4 = /* Biharmonic Diffusivity */
(PID.TID 0000.0001)                 0.000000000000000E+00
(PID.TID 0000.0001)     ;
(PID.TID 0000.0001) PTRACERS_diffKrNr = /* Vertical Diffusivity */
(PID.TID 0000.0001)    23 @  1.000000000000000E-05              /* K =  1: 23 */
(PID.TID 0000.0001)     ;
(PID.TID 0000.0001) PTRACERS_useGMRedi = /* apply GM-Redi */
(PID.TID 0000.0001)                   T
(PID.TID 0000.0001)     ;
(PID.TID 0000.0001) PTRACERS_useDWNSLP = /* apply DOWN-SLOPE Flow */
(PID.TID 0000.0001)                   F
(PID.TID 0000.0001)     ;
(PID.TID 0000.0001) PTRACERS_useKPP = /* apply KPP scheme */
(PID.TID 0000.0001)                   T
(PID.TID 0000.0001)     ;
(PID.TID 0000.0001) PTRACERS_ref = /* Reference vertical profile */
(PID.TID 0000.0001)    23 @  0.000000000000000E+00              /* K =  1: 23 */
(PID.TID 0000.0001)     ;
(PID.TID 0000.0001) PTRACERS_EvPrRn =/* tracer conc. in Evap. & Rain */
(PID.TID 0000.0001)                 1.234567000000000E+05
(PID.TID 0000.0001)     ;
(PID.TID 0000.0001)  -----------------------------------
(PID.TID 0000.0001)  tracer number :   36
(PID.TID 0000.0001) PTRACERS_names = /* Tracer short name */
(PID.TID 0000.0001)               'c17'
(PID.TID 0000.0001)     ;
(PID.TID 0000.0001) PTRACERS_long_names = /* Tracer long name */
(PID.TID 0000.0001)               ''
(PID.TID 0000.0001)     ;
(PID.TID 0000.0001) PTRACERS_ioLabel = /* tracer IO Label */
(PID.TID 0000.0001)               '36'
(PID.TID 0000.0001)     ;
(PID.TID 0000.0001) PTRACERS_advScheme = /* Advection Scheme */
(PID.TID 0000.0001)                      33
(PID.TID 0000.0001)     ;
(PID.TID 0000.0001) PTRACERS_SOM_Advection = /* tracer uses SOM advection scheme */
(PID.TID 0000.0001)                   F
(PID.TID 0000.0001)     ;
(PID.TID 0000.0001) PTRACERS_ImplVertAdv = /* implicit vert. advection flag */
(PID.TID 0000.0001)                   F
(PID.TID 0000.0001)     ;
(PID.TID 0000.0001) PTRACERS_diffKh = /* Laplacian Diffusivity */
(PID.TID 0000.0001)                 0.000000000000000E+00
(PID.TID 0000.0001)     ;
(PID.TID 0000.0001) PTRACERS_diffK4 = /* Biharmonic Diffusivity */
(PID.TID 0000.0001)                 0.000000000000000E+00
(PID.TID 0000.0001)     ;
(PID.TID 0000.0001) PTRACERS_diffKrNr = /* Vertical Diffusivity */
(PID.TID 0000.0001)    23 @  1.000000000000000E-05              /* K =  1: 23 */
(PID.TID 0000.0001)     ;
(PID.TID 0000.0001) PTRACERS_useGMRedi = /* apply GM-Redi */
(PID.TID 0000.0001)                   T
(PID.TID 0000.0001)     ;
(PID.TID 0000.0001) PTRACERS_useDWNSLP = /* apply DOWN-SLOPE Flow */
(PID.TID 0000.0001)                   F
(PID.TID 0000.0001)     ;
(PID.TID 0000.0001) PTRACERS_useKPP = /* apply KPP scheme */
(PID.TID 0000.0001)                   T
(PID.TID 0000.0001)     ;
(PID.TID 0000.0001) PTRACERS_ref = /* Reference vertical profile */
(PID.TID 0000.0001)    23 @  0.000000000000000E+00              /* K =  1: 23 */
(PID.TID 0000.0001)     ;
(PID.TID 0000.0001) PTRACERS_EvPrRn =/* tracer conc. in Evap. & Rain */
(PID.TID 0000.0001)                 1.234567000000000E+05
(PID.TID 0000.0001)     ;
(PID.TID 0000.0001)  -----------------------------------
(PID.TID 0000.0001)  tracer number :   37
(PID.TID 0000.0001) PTRACERS_names = /* Tracer short name */
(PID.TID 0000.0001)               'c18'
(PID.TID 0000.0001)     ;
(PID.TID 0000.0001) PTRACERS_long_names = /* Tracer long name */
(PID.TID 0000.0001)               ''
(PID.TID 0000.0001)     ;
(PID.TID 0000.0001) PTRACERS_ioLabel = /* tracer IO Label */
(PID.TID 0000.0001)               '37'
(PID.TID 0000.0001)     ;
(PID.TID 0000.0001) PTRACERS_advScheme = /* Advection Scheme */
(PID.TID 0000.0001)                      33
(PID.TID 0000.0001)     ;
(PID.TID 0000.0001) PTRACERS_SOM_Advection = /* tracer uses SOM advection scheme */
(PID.TID 0000.0001)                   F
(PID.TID 0000.0001)     ;
(PID.TID 0000.0001) PTRACERS_ImplVertAdv = /* implicit vert. advection flag */
(PID.TID 0000.0001)                   F
(PID.TID 0000.0001)     ;
(PID.TID 0000.0001) PTRACERS_diffKh = /* Laplacian Diffusivity */
(PID.TID 0000.0001)                 0.000000000000000E+00
(PID.TID 0000.0001)     ;
(PID.TID 0000.0001) PTRACERS_diffK4 = /* Biharmonic Diffusivity */
(PID.TID 0000.0001)                 0.000000000000000E+00
(PID.TID 0000.0001)     ;
(PID.TID 0000.0001) PTRACERS_diffKrNr = /* Vertical Diffusivity */
(PID.TID 0000.0001)    23 @  1.000000000000000E-05              /* K =  1: 23 */
(PID.TID 0000.0001)     ;
(PID.TID 0000.0001) PTRACERS_useGMRedi = /* apply GM-Redi */
(PID.TID 0000.0001)                   T
(PID.TID 0000.0001)     ;
(PID.TID 0000.0001) PTRACERS_useDWNSLP = /* apply DOWN-SLOPE Flow */
(PID.TID 0000.0001)                   F
(PID.TID 0000.0001)     ;
(PID.TID 0000.0001) PTRACERS_useKPP = /* apply KPP scheme */
(PID.TID 0000.0001)                   T
(PID.TID 0000.0001)     ;
(PID.TID 0000.0001) PTRACERS_ref = /* Reference vertical profile */
(PID.TID 0000.0001)    23 @  0.000000000000000E+00              /* K =  1: 23 */
(PID.TID 0000.0001)     ;
(PID.TID 0000.0001) PTRACERS_EvPrRn =/* tracer conc. in Evap. & Rain */
(PID.TID 0000.0001)                 1.234567000000000E+05
(PID.TID 0000.0001)     ;
(PID.TID 0000.0001)  -----------------------------------
(PID.TID 0000.0001)  tracer number :   38
(PID.TID 0000.0001) PTRACERS_names = /* Tracer short name */
(PID.TID 0000.0001)               'c19'
(PID.TID 0000.0001)     ;
(PID.TID 0000.0001) PTRACERS_long_names = /* Tracer long name */
(PID.TID 0000.0001)               ''
(PID.TID 0000.0001)     ;
(PID.TID 0000.0001) PTRACERS_ioLabel = /* tracer IO Label */
(PID.TID 0000.0001)               '38'
(PID.TID 0000.0001)     ;
(PID.TID 0000.0001) PTRACERS_advScheme = /* Advection Scheme */
(PID.TID 0000.0001)                      33
(PID.TID 0000.0001)     ;
(PID.TID 0000.0001) PTRACERS_SOM_Advection = /* tracer uses SOM advection scheme */
(PID.TID 0000.0001)                   F
(PID.TID 0000.0001)     ;
(PID.TID 0000.0001) PTRACERS_ImplVertAdv = /* implicit vert. advection flag */
(PID.TID 0000.0001)                   F
(PID.TID 0000.0001)     ;
(PID.TID 0000.0001) PTRACERS_diffKh = /* Laplacian Diffusivity */
(PID.TID 0000.0001)                 0.000000000000000E+00
(PID.TID 0000.0001)     ;
(PID.TID 0000.0001) PTRACERS_diffK4 = /* Biharmonic Diffusivity */
(PID.TID 0000.0001)                 0.000000000000000E+00
(PID.TID 0000.0001)     ;
(PID.TID 0000.0001) PTRACERS_diffKrNr = /* Vertical Diffusivity */
(PID.TID 0000.0001)    23 @  1.000000000000000E-05              /* K =  1: 23 */
(PID.TID 0000.0001)     ;
(PID.TID 0000.0001) PTRACERS_useGMRedi = /* apply GM-Redi */
(PID.TID 0000.0001)                   T
(PID.TID 0000.0001)     ;
(PID.TID 0000.0001) PTRACERS_useDWNSLP = /* apply DOWN-SLOPE Flow */
(PID.TID 0000.0001)                   F
(PID.TID 0000.0001)     ;
(PID.TID 0000.0001) PTRACERS_useKPP = /* apply KPP scheme */
(PID.TID 0000.0001)                   T
(PID.TID 0000.0001)     ;
(PID.TID 0000.0001) PTRACERS_ref = /* Reference vertical profile */
(PID.TID 0000.0001)    23 @  0.000000000000000E+00              /* K =  1: 23 */
(PID.TID 0000.0001)     ;
(PID.TID 0000.0001) PTRACERS_EvPrRn =/* tracer conc. in Evap. & Rain */
(PID.TID 0000.0001)                 1.234567000000000E+05
(PID.TID 0000.0001)     ;
(PID.TID 0000.0001)  -----------------------------------
(PID.TID 0000.0001)  tracer number :   39
(PID.TID 0000.0001) PTRACERS_names = /* Tracer short name */
(PID.TID 0000.0001)               'c20'
(PID.TID 0000.0001)     ;
(PID.TID 0000.0001) PTRACERS_long_names = /* Tracer long name */
(PID.TID 0000.0001)               ''
(PID.TID 0000.0001)     ;
(PID.TID 0000.0001) PTRACERS_ioLabel = /* tracer IO Label */
(PID.TID 0000.0001)               '39'
(PID.TID 0000.0001)     ;
(PID.TID 0000.0001) PTRACERS_advScheme = /* Advection Scheme */
(PID.TID 0000.0001)                      33
(PID.TID 0000.0001)     ;
(PID.TID 0000.0001) PTRACERS_SOM_Advection = /* tracer uses SOM advection scheme */
(PID.TID 0000.0001)                   F
(PID.TID 0000.0001)     ;
(PID.TID 0000.0001) PTRACERS_ImplVertAdv = /* implicit vert. advection flag */
(PID.TID 0000.0001)                   F
(PID.TID 0000.0001)     ;
(PID.TID 0000.0001) PTRACERS_diffKh = /* Laplacian Diffusivity */
(PID.TID 0000.0001)                 0.000000000000000E+00
(PID.TID 0000.0001)     ;
(PID.TID 0000.0001) PTRACERS_diffK4 = /* Biharmonic Diffusivity */
(PID.TID 0000.0001)                 0.000000000000000E+00
(PID.TID 0000.0001)     ;
(PID.TID 0000.0001) PTRACERS_diffKrNr = /* Vertical Diffusivity */
(PID.TID 0000.0001)    23 @  1.000000000000000E-05              /* K =  1: 23 */
(PID.TID 0000.0001)     ;
(PID.TID 0000.0001) PTRACERS_useGMRedi = /* apply GM-Redi */
(PID.TID 0000.0001)                   T
(PID.TID 0000.0001)     ;
(PID.TID 0000.0001) PTRACERS_useDWNSLP = /* apply DOWN-SLOPE Flow */
(PID.TID 0000.0001)                   F
(PID.TID 0000.0001)     ;
(PID.TID 0000.0001) PTRACERS_useKPP = /* apply KPP scheme */
(PID.TID 0000.0001)                   T
(PID.TID 0000.0001)     ;
(PID.TID 0000.0001) PTRACERS_ref = /* Reference vertical profile */
(PID.TID 0000.0001)    23 @  0.000000000000000E+00              /* K =  1: 23 */
(PID.TID 0000.0001)     ;
(PID.TID 0000.0001) PTRACERS_EvPrRn =/* tracer conc. in Evap. & Rain */
(PID.TID 0000.0001)                 1.234567000000000E+05
(PID.TID 0000.0001)     ;
(PID.TID 0000.0001)  -----------------------------------
(PID.TID 0000.0001)  tracer number :   40
(PID.TID 0000.0001) PTRACERS_names = /* Tracer short name */
(PID.TID 0000.0001)               'c21'
(PID.TID 0000.0001)     ;
(PID.TID 0000.0001) PTRACERS_long_names = /* Tracer long name */
(PID.TID 0000.0001)               ''
(PID.TID 0000.0001)     ;
(PID.TID 0000.0001) PTRACERS_ioLabel = /* tracer IO Label */
(PID.TID 0000.0001)               '40'
(PID.TID 0000.0001)     ;
(PID.TID 0000.0001) PTRACERS_advScheme = /* Advection Scheme */
(PID.TID 0000.0001)                      33
(PID.TID 0000.0001)     ;
(PID.TID 0000.0001) PTRACERS_SOM_Advection = /* tracer uses SOM advection scheme */
(PID.TID 0000.0001)                   F
(PID.TID 0000.0001)     ;
(PID.TID 0000.0001) PTRACERS_ImplVertAdv = /* implicit vert. advection flag */
(PID.TID 0000.0001)                   F
(PID.TID 0000.0001)     ;
(PID.TID 0000.0001) PTRACERS_diffKh = /* Laplacian Diffusivity */
(PID.TID 0000.0001)                 0.000000000000000E+00
(PID.TID 0000.0001)     ;
(PID.TID 0000.0001) PTRACERS_diffK4 = /* Biharmonic Diffusivity */
(PID.TID 0000.0001)                 0.000000000000000E+00
(PID.TID 0000.0001)     ;
(PID.TID 0000.0001) PTRACERS_diffKrNr = /* Vertical Diffusivity */
(PID.TID 0000.0001)    23 @  1.000000000000000E-05              /* K =  1: 23 */
(PID.TID 0000.0001)     ;
(PID.TID 0000.0001) PTRACERS_useGMRedi = /* apply GM-Redi */
(PID.TID 0000.0001)                   T
(PID.TID 0000.0001)     ;
(PID.TID 0000.0001) PTRACERS_useDWNSLP = /* apply DOWN-SLOPE Flow */
(PID.TID 0000.0001)                   F
(PID.TID 0000.0001)     ;
(PID.TID 0000.0001) PTRACERS_useKPP = /* apply KPP scheme */
(PID.TID 0000.0001)                   T
(PID.TID 0000.0001)     ;
(PID.TID 0000.0001) PTRACERS_ref = /* Reference vertical profile */
(PID.TID 0000.0001)    23 @  0.000000000000000E+00              /* K =  1: 23 */
(PID.TID 0000.0001)     ;
(PID.TID 0000.0001) PTRACERS_EvPrRn =/* tracer conc. in Evap. & Rain */
(PID.TID 0000.0001)                 1.234567000000000E+05
(PID.TID 0000.0001)     ;
(PID.TID 0000.0001)  -----------------------------------
(PID.TID 0000.0001)  tracer number :   41
(PID.TID 0000.0001) PTRACERS_names = /* Tracer short name */
(PID.TID 0000.0001)               'c22'
(PID.TID 0000.0001)     ;
(PID.TID 0000.0001) PTRACERS_long_names = /* Tracer long name */
(PID.TID 0000.0001)               ''
(PID.TID 0000.0001)     ;
(PID.TID 0000.0001) PTRACERS_ioLabel = /* tracer IO Label */
(PID.TID 0000.0001)               '41'
(PID.TID 0000.0001)     ;
(PID.TID 0000.0001) PTRACERS_advScheme = /* Advection Scheme */
(PID.TID 0000.0001)                      33
(PID.TID 0000.0001)     ;
(PID.TID 0000.0001) PTRACERS_SOM_Advection = /* tracer uses SOM advection scheme */
(PID.TID 0000.0001)                   F
(PID.TID 0000.0001)     ;
(PID.TID 0000.0001) PTRACERS_ImplVertAdv = /* implicit vert. advection flag */
(PID.TID 0000.0001)                   F
(PID.TID 0000.0001)     ;
(PID.TID 0000.0001) PTRACERS_diffKh = /* Laplacian Diffusivity */
(PID.TID 0000.0001)                 0.000000000000000E+00
(PID.TID 0000.0001)     ;
(PID.TID 0000.0001) PTRACERS_diffK4 = /* Biharmonic Diffusivity */
(PID.TID 0000.0001)                 0.000000000000000E+00
(PID.TID 0000.0001)     ;
(PID.TID 0000.0001) PTRACERS_diffKrNr = /* Vertical Diffusivity */
(PID.TID 0000.0001)    23 @  1.000000000000000E-05              /* K =  1: 23 */
(PID.TID 0000.0001)     ;
(PID.TID 0000.0001) PTRACERS_useGMRedi = /* apply GM-Redi */
(PID.TID 0000.0001)                   T
(PID.TID 0000.0001)     ;
(PID.TID 0000.0001) PTRACERS_useDWNSLP = /* apply DOWN-SLOPE Flow */
(PID.TID 0000.0001)                   F
(PID.TID 0000.0001)     ;
(PID.TID 0000.0001) PTRACERS_useKPP = /* apply KPP scheme */
(PID.TID 0000.0001)                   T
(PID.TID 0000.0001)     ;
(PID.TID 0000.0001) PTRACERS_ref = /* Reference vertical profile */
(PID.TID 0000.0001)    23 @  0.000000000000000E+00              /* K =  1: 23 */
(PID.TID 0000.0001)     ;
(PID.TID 0000.0001) PTRACERS_EvPrRn =/* tracer conc. in Evap. & Rain */
(PID.TID 0000.0001)                 1.234567000000000E+05
(PID.TID 0000.0001)     ;
(PID.TID 0000.0001)  -----------------------------------
(PID.TID 0000.0001)  tracer number :   42
(PID.TID 0000.0001) PTRACERS_names = /* Tracer short name */
(PID.TID 0000.0001)               'c23'
(PID.TID 0000.0001)     ;
(PID.TID 0000.0001) PTRACERS_long_names = /* Tracer long name */
(PID.TID 0000.0001)               ''
(PID.TID 0000.0001)     ;
(PID.TID 0000.0001) PTRACERS_ioLabel = /* tracer IO Label */
(PID.TID 0000.0001)               '42'
(PID.TID 0000.0001)     ;
(PID.TID 0000.0001) PTRACERS_advScheme = /* Advection Scheme */
(PID.TID 0000.0001)                      33
(PID.TID 0000.0001)     ;
(PID.TID 0000.0001) PTRACERS_SOM_Advection = /* tracer uses SOM advection scheme */
(PID.TID 0000.0001)                   F
(PID.TID 0000.0001)     ;
(PID.TID 0000.0001) PTRACERS_ImplVertAdv = /* implicit vert. advection flag */
(PID.TID 0000.0001)                   F
(PID.TID 0000.0001)     ;
(PID.TID 0000.0001) PTRACERS_diffKh = /* Laplacian Diffusivity */
(PID.TID 0000.0001)                 0.000000000000000E+00
(PID.TID 0000.0001)     ;
(PID.TID 0000.0001) PTRACERS_diffK4 = /* Biharmonic Diffusivity */
(PID.TID 0000.0001)                 0.000000000000000E+00
(PID.TID 0000.0001)     ;
(PID.TID 0000.0001) PTRACERS_diffKrNr = /* Vertical Diffusivity */
(PID.TID 0000.0001)    23 @  1.000000000000000E-05              /* K =  1: 23 */
(PID.TID 0000.0001)     ;
(PID.TID 0000.0001) PTRACERS_useGMRedi = /* apply GM-Redi */
(PID.TID 0000.0001)                   T
(PID.TID 0000.0001)     ;
(PID.TID 0000.0001) PTRACERS_useDWNSLP = /* apply DOWN-SLOPE Flow */
(PID.TID 0000.0001)                   F
(PID.TID 0000.0001)     ;
(PID.TID 0000.0001) PTRACERS_useKPP = /* apply KPP scheme */
(PID.TID 0000.0001)                   T
(PID.TID 0000.0001)     ;
(PID.TID 0000.0001) PTRACERS_ref = /* Reference vertical profile */
(PID.TID 0000.0001)    23 @  0.000000000000000E+00              /* K =  1: 23 */
(PID.TID 0000.0001)     ;
(PID.TID 0000.0001) PTRACERS_EvPrRn =/* tracer conc. in Evap. & Rain */
(PID.TID 0000.0001)                 1.234567000000000E+05
(PID.TID 0000.0001)     ;
(PID.TID 0000.0001)  -----------------------------------
(PID.TID 0000.0001)  tracer number :   43
(PID.TID 0000.0001) PTRACERS_names = /* Tracer short name */
(PID.TID 0000.0001)               'c24'
(PID.TID 0000.0001)     ;
(PID.TID 0000.0001) PTRACERS_long_names = /* Tracer long name */
(PID.TID 0000.0001)               ''
(PID.TID 0000.0001)     ;
(PID.TID 0000.0001) PTRACERS_ioLabel = /* tracer IO Label */
(PID.TID 0000.0001)               '43'
(PID.TID 0000.0001)     ;
(PID.TID 0000.0001) PTRACERS_advScheme = /* Advection Scheme */
(PID.TID 0000.0001)                      33
(PID.TID 0000.0001)     ;
(PID.TID 0000.0001) PTRACERS_SOM_Advection = /* tracer uses SOM advection scheme */
(PID.TID 0000.0001)                   F
(PID.TID 0000.0001)     ;
(PID.TID 0000.0001) PTRACERS_ImplVertAdv = /* implicit vert. advection flag */
(PID.TID 0000.0001)                   F
(PID.TID 0000.0001)     ;
(PID.TID 0000.0001) PTRACERS_diffKh = /* Laplacian Diffusivity */
(PID.TID 0000.0001)                 0.000000000000000E+00
(PID.TID 0000.0001)     ;
(PID.TID 0000.0001) PTRACERS_diffK4 = /* Biharmonic Diffusivity */
(PID.TID 0000.0001)                 0.000000000000000E+00
(PID.TID 0000.0001)     ;
(PID.TID 0000.0001) PTRACERS_diffKrNr = /* Vertical Diffusivity */
(PID.TID 0000.0001)    23 @  1.000000000000000E-05              /* K =  1: 23 */
(PID.TID 0000.0001)     ;
(PID.TID 0000.0001) PTRACERS_useGMRedi = /* apply GM-Redi */
(PID.TID 0000.0001)                   T
(PID.TID 0000.0001)     ;
(PID.TID 0000.0001) PTRACERS_useDWNSLP = /* apply DOWN-SLOPE Flow */
(PID.TID 0000.0001)                   F
(PID.TID 0000.0001)     ;
(PID.TID 0000.0001) PTRACERS_useKPP = /* apply KPP scheme */
(PID.TID 0000.0001)                   T
(PID.TID 0000.0001)     ;
(PID.TID 0000.0001) PTRACERS_ref = /* Reference vertical profile */
(PID.TID 0000.0001)    23 @  0.000000000000000E+00              /* K =  1: 23 */
(PID.TID 0000.0001)     ;
(PID.TID 0000.0001) PTRACERS_EvPrRn =/* tracer conc. in Evap. & Rain */
(PID.TID 0000.0001)                 1.234567000000000E+05
(PID.TID 0000.0001)     ;
(PID.TID 0000.0001)  -----------------------------------
(PID.TID 0000.0001)  tracer number :   44
(PID.TID 0000.0001) PTRACERS_names = /* Tracer short name */
(PID.TID 0000.0001)               'c25'
(PID.TID 0000.0001)     ;
(PID.TID 0000.0001) PTRACERS_long_names = /* Tracer long name */
(PID.TID 0000.0001)               ''
(PID.TID 0000.0001)     ;
(PID.TID 0000.0001) PTRACERS_ioLabel = /* tracer IO Label */
(PID.TID 0000.0001)               '44'
(PID.TID 0000.0001)     ;
(PID.TID 0000.0001) PTRACERS_advScheme = /* Advection Scheme */
(PID.TID 0000.0001)                      33
(PID.TID 0000.0001)     ;
(PID.TID 0000.0001) PTRACERS_SOM_Advection = /* tracer uses SOM advection scheme */
(PID.TID 0000.0001)                   F
(PID.TID 0000.0001)     ;
(PID.TID 0000.0001) PTRACERS_ImplVertAdv = /* implicit vert. advection flag */
(PID.TID 0000.0001)                   F
(PID.TID 0000.0001)     ;
(PID.TID 0000.0001) PTRACERS_diffKh = /* Laplacian Diffusivity */
(PID.TID 0000.0001)                 0.000000000000000E+00
(PID.TID 0000.0001)     ;
(PID.TID 0000.0001) PTRACERS_diffK4 = /* Biharmonic Diffusivity */
(PID.TID 0000.0001)                 0.000000000000000E+00
(PID.TID 0000.0001)     ;
(PID.TID 0000.0001) PTRACERS_diffKrNr = /* Vertical Diffusivity */
(PID.TID 0000.0001)    23 @  1.000000000000000E-05              /* K =  1: 23 */
(PID.TID 0000.0001)     ;
(PID.TID 0000.0001) PTRACERS_useGMRedi = /* apply GM-Redi */
(PID.TID 0000.0001)                   T
(PID.TID 0000.0001)     ;
(PID.TID 0000.0001) PTRACERS_useDWNSLP = /* apply DOWN-SLOPE Flow */
(PID.TID 0000.0001)                   F
(PID.TID 0000.0001)     ;
(PID.TID 0000.0001) PTRACERS_useKPP = /* apply KPP scheme */
(PID.TID 0000.0001)                   T
(PID.TID 0000.0001)     ;
(PID.TID 0000.0001) PTRACERS_ref = /* Reference vertical profile */
(PID.TID 0000.0001)    23 @  0.000000000000000E+00              /* K =  1: 23 */
(PID.TID 0000.0001)     ;
(PID.TID 0000.0001) PTRACERS_EvPrRn =/* tracer conc. in Evap. & Rain */
(PID.TID 0000.0001)                 1.234567000000000E+05
(PID.TID 0000.0001)     ;
(PID.TID 0000.0001)  -----------------------------------
(PID.TID 0000.0001)  tracer number :   45
(PID.TID 0000.0001) PTRACERS_names = /* Tracer short name */
(PID.TID 0000.0001)               'c26'
(PID.TID 0000.0001)     ;
(PID.TID 0000.0001) PTRACERS_long_names = /* Tracer long name */
(PID.TID 0000.0001)               ''
(PID.TID 0000.0001)     ;
(PID.TID 0000.0001) PTRACERS_ioLabel = /* tracer IO Label */
(PID.TID 0000.0001)               '45'
(PID.TID 0000.0001)     ;
(PID.TID 0000.0001) PTRACERS_advScheme = /* Advection Scheme */
(PID.TID 0000.0001)                      33
(PID.TID 0000.0001)     ;
(PID.TID 0000.0001) PTRACERS_SOM_Advection = /* tracer uses SOM advection scheme */
(PID.TID 0000.0001)                   F
(PID.TID 0000.0001)     ;
(PID.TID 0000.0001) PTRACERS_ImplVertAdv = /* implicit vert. advection flag */
(PID.TID 0000.0001)                   F
(PID.TID 0000.0001)     ;
(PID.TID 0000.0001) PTRACERS_diffKh = /* Laplacian Diffusivity */
(PID.TID 0000.0001)                 0.000000000000000E+00
(PID.TID 0000.0001)     ;
(PID.TID 0000.0001) PTRACERS_diffK4 = /* Biharmonic Diffusivity */
(PID.TID 0000.0001)                 0.000000000000000E+00
(PID.TID 0000.0001)     ;
(PID.TID 0000.0001) PTRACERS_diffKrNr = /* Vertical Diffusivity */
(PID.TID 0000.0001)    23 @  1.000000000000000E-05              /* K =  1: 23 */
(PID.TID 0000.0001)     ;
(PID.TID 0000.0001) PTRACERS_useGMRedi = /* apply GM-Redi */
(PID.TID 0000.0001)                   T
(PID.TID 0000.0001)     ;
(PID.TID 0000.0001) PTRACERS_useDWNSLP = /* apply DOWN-SLOPE Flow */
(PID.TID 0000.0001)                   F
(PID.TID 0000.0001)     ;
(PID.TID 0000.0001) PTRACERS_useKPP = /* apply KPP scheme */
(PID.TID 0000.0001)                   T
(PID.TID 0000.0001)     ;
(PID.TID 0000.0001) PTRACERS_ref = /* Reference vertical profile */
(PID.TID 0000.0001)    23 @  0.000000000000000E+00              /* K =  1: 23 */
(PID.TID 0000.0001)     ;
(PID.TID 0000.0001) PTRACERS_EvPrRn =/* tracer conc. in Evap. & Rain */
(PID.TID 0000.0001)                 1.234567000000000E+05
(PID.TID 0000.0001)     ;
(PID.TID 0000.0001)  -----------------------------------
(PID.TID 0000.0001)  tracer number :   46
(PID.TID 0000.0001) PTRACERS_names = /* Tracer short name */
(PID.TID 0000.0001)               'c27'
(PID.TID 0000.0001)     ;
(PID.TID 0000.0001) PTRACERS_long_names = /* Tracer long name */
(PID.TID 0000.0001)               ''
(PID.TID 0000.0001)     ;
(PID.TID 0000.0001) PTRACERS_ioLabel = /* tracer IO Label */
(PID.TID 0000.0001)               '46'
(PID.TID 0000.0001)     ;
(PID.TID 0000.0001) PTRACERS_advScheme = /* Advection Scheme */
(PID.TID 0000.0001)                      33
(PID.TID 0000.0001)     ;
(PID.TID 0000.0001) PTRACERS_SOM_Advection = /* tracer uses SOM advection scheme */
(PID.TID 0000.0001)                   F
(PID.TID 0000.0001)     ;
(PID.TID 0000.0001) PTRACERS_ImplVertAdv = /* implicit vert. advection flag */
(PID.TID 0000.0001)                   F
(PID.TID 0000.0001)     ;
(PID.TID 0000.0001) PTRACERS_diffKh = /* Laplacian Diffusivity */
(PID.TID 0000.0001)                 0.000000000000000E+00
(PID.TID 0000.0001)     ;
(PID.TID 0000.0001) PTRACERS_diffK4 = /* Biharmonic Diffusivity */
(PID.TID 0000.0001)                 0.000000000000000E+00
(PID.TID 0000.0001)     ;
(PID.TID 0000.0001) PTRACERS_diffKrNr = /* Vertical Diffusivity */
(PID.TID 0000.0001)    23 @  1.000000000000000E-05              /* K =  1: 23 */
(PID.TID 0000.0001)     ;
(PID.TID 0000.0001) PTRACERS_useGMRedi = /* apply GM-Redi */
(PID.TID 0000.0001)                   T
(PID.TID 0000.0001)     ;
(PID.TID 0000.0001) PTRACERS_useDWNSLP = /* apply DOWN-SLOPE Flow */
(PID.TID 0000.0001)                   F
(PID.TID 0000.0001)     ;
(PID.TID 0000.0001) PTRACERS_useKPP = /* apply KPP scheme */
(PID.TID 0000.0001)                   T
(PID.TID 0000.0001)     ;
(PID.TID 0000.0001) PTRACERS_ref = /* Reference vertical profile */
(PID.TID 0000.0001)    23 @  0.000000000000000E+00              /* K =  1: 23 */
(PID.TID 0000.0001)     ;
(PID.TID 0000.0001) PTRACERS_EvPrRn =/* tracer conc. in Evap. & Rain */
(PID.TID 0000.0001)                 1.234567000000000E+05
(PID.TID 0000.0001)     ;
(PID.TID 0000.0001)  -----------------------------------
(PID.TID 0000.0001)  tracer number :   47
(PID.TID 0000.0001) PTRACERS_names = /* Tracer short name */
(PID.TID 0000.0001)               'c28'
(PID.TID 0000.0001)     ;
(PID.TID 0000.0001) PTRACERS_long_names = /* Tracer long name */
(PID.TID 0000.0001)               ''
(PID.TID 0000.0001)     ;
(PID.TID 0000.0001) PTRACERS_ioLabel = /* tracer IO Label */
(PID.TID 0000.0001)               '47'
(PID.TID 0000.0001)     ;
(PID.TID 0000.0001) PTRACERS_advScheme = /* Advection Scheme */
(PID.TID 0000.0001)                      33
(PID.TID 0000.0001)     ;
(PID.TID 0000.0001) PTRACERS_SOM_Advection = /* tracer uses SOM advection scheme */
(PID.TID 0000.0001)                   F
(PID.TID 0000.0001)     ;
(PID.TID 0000.0001) PTRACERS_ImplVertAdv = /* implicit vert. advection flag */
(PID.TID 0000.0001)                   F
(PID.TID 0000.0001)     ;
(PID.TID 0000.0001) PTRACERS_diffKh = /* Laplacian Diffusivity */
(PID.TID 0000.0001)                 0.000000000000000E+00
(PID.TID 0000.0001)     ;
(PID.TID 0000.0001) PTRACERS_diffK4 = /* Biharmonic Diffusivity */
(PID.TID 0000.0001)                 0.000000000000000E+00
(PID.TID 0000.0001)     ;
(PID.TID 0000.0001) PTRACERS_diffKrNr = /* Vertical Diffusivity */
(PID.TID 0000.0001)    23 @  1.000000000000000E-05              /* K =  1: 23 */
(PID.TID 0000.0001)     ;
(PID.TID 0000.0001) PTRACERS_useGMRedi = /* apply GM-Redi */
(PID.TID 0000.0001)                   T
(PID.TID 0000.0001)     ;
(PID.TID 0000.0001) PTRACERS_useDWNSLP = /* apply DOWN-SLOPE Flow */
(PID.TID 0000.0001)                   F
(PID.TID 0000.0001)     ;
(PID.TID 0000.0001) PTRACERS_useKPP = /* apply KPP scheme */
(PID.TID 0000.0001)                   T
(PID.TID 0000.0001)     ;
(PID.TID 0000.0001) PTRACERS_ref = /* Reference vertical profile */
(PID.TID 0000.0001)    23 @  0.000000000000000E+00              /* K =  1: 23 */
(PID.TID 0000.0001)     ;
(PID.TID 0000.0001) PTRACERS_EvPrRn =/* tracer conc. in Evap. & Rain */
(PID.TID 0000.0001)                 1.234567000000000E+05
(PID.TID 0000.0001)     ;
(PID.TID 0000.0001)  -----------------------------------
(PID.TID 0000.0001)  tracer number :   48
(PID.TID 0000.0001) PTRACERS_names = /* Tracer short name */
(PID.TID 0000.0001)               'c29'
(PID.TID 0000.0001)     ;
(PID.TID 0000.0001) PTRACERS_long_names = /* Tracer long name */
(PID.TID 0000.0001)               ''
(PID.TID 0000.0001)     ;
(PID.TID 0000.0001) PTRACERS_ioLabel = /* tracer IO Label */
(PID.TID 0000.0001)               '48'
(PID.TID 0000.0001)     ;
(PID.TID 0000.0001) PTRACERS_advScheme = /* Advection Scheme */
(PID.TID 0000.0001)                      33
(PID.TID 0000.0001)     ;
(PID.TID 0000.0001) PTRACERS_SOM_Advection = /* tracer uses SOM advection scheme */
(PID.TID 0000.0001)                   F
(PID.TID 0000.0001)     ;
(PID.TID 0000.0001) PTRACERS_ImplVertAdv = /* implicit vert. advection flag */
(PID.TID 0000.0001)                   F
(PID.TID 0000.0001)     ;
(PID.TID 0000.0001) PTRACERS_diffKh = /* Laplacian Diffusivity */
(PID.TID 0000.0001)                 0.000000000000000E+00
(PID.TID 0000.0001)     ;
(PID.TID 0000.0001) PTRACERS_diffK4 = /* Biharmonic Diffusivity */
(PID.TID 0000.0001)                 0.000000000000000E+00
(PID.TID 0000.0001)     ;
(PID.TID 0000.0001) PTRACERS_diffKrNr = /* Vertical Diffusivity */
(PID.TID 0000.0001)    23 @  1.000000000000000E-05              /* K =  1: 23 */
(PID.TID 0000.0001)     ;
(PID.TID 0000.0001) PTRACERS_useGMRedi = /* apply GM-Redi */
(PID.TID 0000.0001)                   T
(PID.TID 0000.0001)     ;
(PID.TID 0000.0001) PTRACERS_useDWNSLP = /* apply DOWN-SLOPE Flow */
(PID.TID 0000.0001)                   F
(PID.TID 0000.0001)     ;
(PID.TID 0000.0001) PTRACERS_useKPP = /* apply KPP scheme */
(PID.TID 0000.0001)                   T
(PID.TID 0000.0001)     ;
(PID.TID 0000.0001) PTRACERS_ref = /* Reference vertical profile */
(PID.TID 0000.0001)    23 @  0.000000000000000E+00              /* K =  1: 23 */
(PID.TID 0000.0001)     ;
(PID.TID 0000.0001) PTRACERS_EvPrRn =/* tracer conc. in Evap. & Rain */
(PID.TID 0000.0001)                 1.234567000000000E+05
(PID.TID 0000.0001)     ;
(PID.TID 0000.0001)  -----------------------------------
(PID.TID 0000.0001)  tracer number :   49
(PID.TID 0000.0001) PTRACERS_names = /* Tracer short name */
(PID.TID 0000.0001)               'c30'
(PID.TID 0000.0001)     ;
(PID.TID 0000.0001) PTRACERS_long_names = /* Tracer long name */
(PID.TID 0000.0001)               ''
(PID.TID 0000.0001)     ;
(PID.TID 0000.0001) PTRACERS_ioLabel = /* tracer IO Label */
(PID.TID 0000.0001)               '49'
(PID.TID 0000.0001)     ;
(PID.TID 0000.0001) PTRACERS_advScheme = /* Advection Scheme */
(PID.TID 0000.0001)                      33
(PID.TID 0000.0001)     ;
(PID.TID 0000.0001) PTRACERS_SOM_Advection = /* tracer uses SOM advection scheme */
(PID.TID 0000.0001)                   F
(PID.TID 0000.0001)     ;
(PID.TID 0000.0001) PTRACERS_ImplVertAdv = /* implicit vert. advection flag */
(PID.TID 0000.0001)                   F
(PID.TID 0000.0001)     ;
(PID.TID 0000.0001) PTRACERS_diffKh = /* Laplacian Diffusivity */
(PID.TID 0000.0001)                 0.000000000000000E+00
(PID.TID 0000.0001)     ;
(PID.TID 0000.0001) PTRACERS_diffK4 = /* Biharmonic Diffusivity */
(PID.TID 0000.0001)                 0.000000000000000E+00
(PID.TID 0000.0001)     ;
(PID.TID 0000.0001) PTRACERS_diffKrNr = /* Vertical Diffusivity */
(PID.TID 0000.0001)    23 @  1.000000000000000E-05              /* K =  1: 23 */
(PID.TID 0000.0001)     ;
(PID.TID 0000.0001) PTRACERS_useGMRedi = /* apply GM-Redi */
(PID.TID 0000.0001)                   T
(PID.TID 0000.0001)     ;
(PID.TID 0000.0001) PTRACERS_useDWNSLP = /* apply DOWN-SLOPE Flow */
(PID.TID 0000.0001)                   F
(PID.TID 0000.0001)     ;
(PID.TID 0000.0001) PTRACERS_useKPP = /* apply KPP scheme */
(PID.TID 0000.0001)                   T
(PID.TID 0000.0001)     ;
(PID.TID 0000.0001) PTRACERS_ref = /* Reference vertical profile */
(PID.TID 0000.0001)    23 @  0.000000000000000E+00              /* K =  1: 23 */
(PID.TID 0000.0001)     ;
(PID.TID 0000.0001) PTRACERS_EvPrRn =/* tracer conc. in Evap. & Rain */
(PID.TID 0000.0001)                 1.234567000000000E+05
(PID.TID 0000.0001)     ;
(PID.TID 0000.0001)  -----------------------------------
(PID.TID 0000.0001)  tracer number :   50
(PID.TID 0000.0001) PTRACERS_names = /* Tracer short name */
(PID.TID 0000.0001)               'c31'
(PID.TID 0000.0001)     ;
(PID.TID 0000.0001) PTRACERS_long_names = /* Tracer long name */
(PID.TID 0000.0001)               ''
(PID.TID 0000.0001)     ;
(PID.TID 0000.0001) PTRACERS_ioLabel = /* tracer IO Label */
(PID.TID 0000.0001)               '50'
(PID.TID 0000.0001)     ;
(PID.TID 0000.0001) PTRACERS_advScheme = /* Advection Scheme */
(PID.TID 0000.0001)                      33
(PID.TID 0000.0001)     ;
(PID.TID 0000.0001) PTRACERS_SOM_Advection = /* tracer uses SOM advection scheme */
(PID.TID 0000.0001)                   F
(PID.TID 0000.0001)     ;
(PID.TID 0000.0001) PTRACERS_ImplVertAdv = /* implicit vert. advection flag */
(PID.TID 0000.0001)                   F
(PID.TID 0000.0001)     ;
(PID.TID 0000.0001) PTRACERS_diffKh = /* Laplacian Diffusivity */
(PID.TID 0000.0001)                 0.000000000000000E+00
(PID.TID 0000.0001)     ;
(PID.TID 0000.0001) PTRACERS_diffK4 = /* Biharmonic Diffusivity */
(PID.TID 0000.0001)                 0.000000000000000E+00
(PID.TID 0000.0001)     ;
(PID.TID 0000.0001) PTRACERS_diffKrNr = /* Vertical Diffusivity */
(PID.TID 0000.0001)    23 @  1.000000000000000E-05              /* K =  1: 23 */
(PID.TID 0000.0001)     ;
(PID.TID 0000.0001) PTRACERS_useGMRedi = /* apply GM-Redi */
(PID.TID 0000.0001)                   T
(PID.TID 0000.0001)     ;
(PID.TID 0000.0001) PTRACERS_useDWNSLP = /* apply DOWN-SLOPE Flow */
(PID.TID 0000.0001)                   F
(PID.TID 0000.0001)     ;
(PID.TID 0000.0001) PTRACERS_useKPP = /* apply KPP scheme */
(PID.TID 0000.0001)                   T
(PID.TID 0000.0001)     ;
(PID.TID 0000.0001) PTRACERS_ref = /* Reference vertical profile */
(PID.TID 0000.0001)    23 @  0.000000000000000E+00              /* K =  1: 23 */
(PID.TID 0000.0001)     ;
(PID.TID 0000.0001) PTRACERS_EvPrRn =/* tracer conc. in Evap. & Rain */
(PID.TID 0000.0001)                 1.234567000000000E+05
(PID.TID 0000.0001)     ;
(PID.TID 0000.0001)  -----------------------------------
(PID.TID 0000.0001)  tracer number :   51
(PID.TID 0000.0001) PTRACERS_names = /* Tracer short name */
(PID.TID 0000.0001)               'c32'
(PID.TID 0000.0001)     ;
(PID.TID 0000.0001) PTRACERS_long_names = /* Tracer long name */
(PID.TID 0000.0001)               ''
(PID.TID 0000.0001)     ;
(PID.TID 0000.0001) PTRACERS_ioLabel = /* tracer IO Label */
(PID.TID 0000.0001)               '51'
(PID.TID 0000.0001)     ;
(PID.TID 0000.0001) PTRACERS_advScheme = /* Advection Scheme */
(PID.TID 0000.0001)                      33
(PID.TID 0000.0001)     ;
(PID.TID 0000.0001) PTRACERS_SOM_Advection = /* tracer uses SOM advection scheme */
(PID.TID 0000.0001)                   F
(PID.TID 0000.0001)     ;
(PID.TID 0000.0001) PTRACERS_ImplVertAdv = /* implicit vert. advection flag */
(PID.TID 0000.0001)                   F
(PID.TID 0000.0001)     ;
(PID.TID 0000.0001) PTRACERS_diffKh = /* Laplacian Diffusivity */
(PID.TID 0000.0001)                 0.000000000000000E+00
(PID.TID 0000.0001)     ;
(PID.TID 0000.0001) PTRACERS_diffK4 = /* Biharmonic Diffusivity */
(PID.TID 0000.0001)                 0.000000000000000E+00
(PID.TID 0000.0001)     ;
(PID.TID 0000.0001) PTRACERS_diffKrNr = /* Vertical Diffusivity */
(PID.TID 0000.0001)    23 @  1.000000000000000E-05              /* K =  1: 23 */
(PID.TID 0000.0001)     ;
(PID.TID 0000.0001) PTRACERS_useGMRedi = /* apply GM-Redi */
(PID.TID 0000.0001)                   T
(PID.TID 0000.0001)     ;
(PID.TID 0000.0001) PTRACERS_useDWNSLP = /* apply DOWN-SLOPE Flow */
(PID.TID 0000.0001)                   F
(PID.TID 0000.0001)     ;
(PID.TID 0000.0001) PTRACERS_useKPP = /* apply KPP scheme */
(PID.TID 0000.0001)                   T
(PID.TID 0000.0001)     ;
(PID.TID 0000.0001) PTRACERS_ref = /* Reference vertical profile */
(PID.TID 0000.0001)    23 @  0.000000000000000E+00              /* K =  1: 23 */
(PID.TID 0000.0001)     ;
(PID.TID 0000.0001) PTRACERS_EvPrRn =/* tracer conc. in Evap. & Rain */
(PID.TID 0000.0001)                 1.234567000000000E+05
(PID.TID 0000.0001)     ;
(PID.TID 0000.0001)  -----------------------------------
(PID.TID 0000.0001)  tracer number :   52
(PID.TID 0000.0001) PTRACERS_names = /* Tracer short name */
(PID.TID 0000.0001)               'c33'
(PID.TID 0000.0001)     ;
(PID.TID 0000.0001) PTRACERS_long_names = /* Tracer long name */
(PID.TID 0000.0001)               ''
(PID.TID 0000.0001)     ;
(PID.TID 0000.0001) PTRACERS_ioLabel = /* tracer IO Label */
(PID.TID 0000.0001)               '52'
(PID.TID 0000.0001)     ;
(PID.TID 0000.0001) PTRACERS_advScheme = /* Advection Scheme */
(PID.TID 0000.0001)                      33
(PID.TID 0000.0001)     ;
(PID.TID 0000.0001) PTRACERS_SOM_Advection = /* tracer uses SOM advection scheme */
(PID.TID 0000.0001)                   F
(PID.TID 0000.0001)     ;
(PID.TID 0000.0001) PTRACERS_ImplVertAdv = /* implicit vert. advection flag */
(PID.TID 0000.0001)                   F
(PID.TID 0000.0001)     ;
(PID.TID 0000.0001) PTRACERS_diffKh = /* Laplacian Diffusivity */
(PID.TID 0000.0001)                 0.000000000000000E+00
(PID.TID 0000.0001)     ;
(PID.TID 0000.0001) PTRACERS_diffK4 = /* Biharmonic Diffusivity */
(PID.TID 0000.0001)                 0.000000000000000E+00
(PID.TID 0000.0001)     ;
(PID.TID 0000.0001) PTRACERS_diffKrNr = /* Vertical Diffusivity */
(PID.TID 0000.0001)    23 @  1.000000000000000E-05              /* K =  1: 23 */
(PID.TID 0000.0001)     ;
(PID.TID 0000.0001) PTRACERS_useGMRedi = /* apply GM-Redi */
(PID.TID 0000.0001)                   T
(PID.TID 0000.0001)     ;
(PID.TID 0000.0001) PTRACERS_useDWNSLP = /* apply DOWN-SLOPE Flow */
(PID.TID 0000.0001)                   F
(PID.TID 0000.0001)     ;
(PID.TID 0000.0001) PTRACERS_useKPP = /* apply KPP scheme */
(PID.TID 0000.0001)                   T
(PID.TID 0000.0001)     ;
(PID.TID 0000.0001) PTRACERS_ref = /* Reference vertical profile */
(PID.TID 0000.0001)    23 @  0.000000000000000E+00              /* K =  1: 23 */
(PID.TID 0000.0001)     ;
(PID.TID 0000.0001) PTRACERS_EvPrRn =/* tracer conc. in Evap. & Rain */
(PID.TID 0000.0001)                 1.234567000000000E+05
(PID.TID 0000.0001)     ;
(PID.TID 0000.0001)  -----------------------------------
(PID.TID 0000.0001)  tracer number :   53
(PID.TID 0000.0001) PTRACERS_names = /* Tracer short name */
(PID.TID 0000.0001)               'c34'
(PID.TID 0000.0001)     ;
(PID.TID 0000.0001) PTRACERS_long_names = /* Tracer long name */
(PID.TID 0000.0001)               ''
(PID.TID 0000.0001)     ;
(PID.TID 0000.0001) PTRACERS_ioLabel = /* tracer IO Label */
(PID.TID 0000.0001)               '53'
(PID.TID 0000.0001)     ;
(PID.TID 0000.0001) PTRACERS_advScheme = /* Advection Scheme */
(PID.TID 0000.0001)                      33
(PID.TID 0000.0001)     ;
(PID.TID 0000.0001) PTRACERS_SOM_Advection = /* tracer uses SOM advection scheme */
(PID.TID 0000.0001)                   F
(PID.TID 0000.0001)     ;
(PID.TID 0000.0001) PTRACERS_ImplVertAdv = /* implicit vert. advection flag */
(PID.TID 0000.0001)                   F
(PID.TID 0000.0001)     ;
(PID.TID 0000.0001) PTRACERS_diffKh = /* Laplacian Diffusivity */
(PID.TID 0000.0001)                 0.000000000000000E+00
(PID.TID 0000.0001)     ;
(PID.TID 0000.0001) PTRACERS_diffK4 = /* Biharmonic Diffusivity */
(PID.TID 0000.0001)                 0.000000000000000E+00
(PID.TID 0000.0001)     ;
(PID.TID 0000.0001) PTRACERS_diffKrNr = /* Vertical Diffusivity */
(PID.TID 0000.0001)    23 @  1.000000000000000E-05              /* K =  1: 23 */
(PID.TID 0000.0001)     ;
(PID.TID 0000.0001) PTRACERS_useGMRedi = /* apply GM-Redi */
(PID.TID 0000.0001)                   T
(PID.TID 0000.0001)     ;
(PID.TID 0000.0001) PTRACERS_useDWNSLP = /* apply DOWN-SLOPE Flow */
(PID.TID 0000.0001)                   F
(PID.TID 0000.0001)     ;
(PID.TID 0000.0001) PTRACERS_useKPP = /* apply KPP scheme */
(PID.TID 0000.0001)                   T
(PID.TID 0000.0001)     ;
(PID.TID 0000.0001) PTRACERS_ref = /* Reference vertical profile */
(PID.TID 0000.0001)    23 @  0.000000000000000E+00              /* K =  1: 23 */
(PID.TID 0000.0001)     ;
(PID.TID 0000.0001) PTRACERS_EvPrRn =/* tracer conc. in Evap. & Rain */
(PID.TID 0000.0001)                 1.234567000000000E+05
(PID.TID 0000.0001)     ;
(PID.TID 0000.0001)  -----------------------------------
(PID.TID 0000.0001)  tracer number :   54
(PID.TID 0000.0001) PTRACERS_names = /* Tracer short name */
(PID.TID 0000.0001)               'c35'
(PID.TID 0000.0001)     ;
(PID.TID 0000.0001) PTRACERS_long_names = /* Tracer long name */
(PID.TID 0000.0001)               ''
(PID.TID 0000.0001)     ;
(PID.TID 0000.0001) PTRACERS_ioLabel = /* tracer IO Label */
(PID.TID 0000.0001)               '54'
(PID.TID 0000.0001)     ;
(PID.TID 0000.0001) PTRACERS_advScheme = /* Advection Scheme */
(PID.TID 0000.0001)                      33
(PID.TID 0000.0001)     ;
(PID.TID 0000.0001) PTRACERS_SOM_Advection = /* tracer uses SOM advection scheme */
(PID.TID 0000.0001)                   F
(PID.TID 0000.0001)     ;
(PID.TID 0000.0001) PTRACERS_ImplVertAdv = /* implicit vert. advection flag */
(PID.TID 0000.0001)                   F
(PID.TID 0000.0001)     ;
(PID.TID 0000.0001) PTRACERS_diffKh = /* Laplacian Diffusivity */
(PID.TID 0000.0001)                 0.000000000000000E+00
(PID.TID 0000.0001)     ;
(PID.TID 0000.0001) PTRACERS_diffK4 = /* Biharmonic Diffusivity */
(PID.TID 0000.0001)                 0.000000000000000E+00
(PID.TID 0000.0001)     ;
(PID.TID 0000.0001) PTRACERS_diffKrNr = /* Vertical Diffusivity */
(PID.TID 0000.0001)    23 @  1.000000000000000E-05              /* K =  1: 23 */
(PID.TID 0000.0001)     ;
(PID.TID 0000.0001) PTRACERS_useGMRedi = /* apply GM-Redi */
(PID.TID 0000.0001)                   T
(PID.TID 0000.0001)     ;
(PID.TID 0000.0001) PTRACERS_useDWNSLP = /* apply DOWN-SLOPE Flow */
(PID.TID 0000.0001)                   F
(PID.TID 0000.0001)     ;
(PID.TID 0000.0001) PTRACERS_useKPP = /* apply KPP scheme */
(PID.TID 0000.0001)                   T
(PID.TID 0000.0001)     ;
(PID.TID 0000.0001) PTRACERS_ref = /* Reference vertical profile */
(PID.TID 0000.0001)    23 @  0.000000000000000E+00              /* K =  1: 23 */
(PID.TID 0000.0001)     ;
(PID.TID 0000.0001) PTRACERS_EvPrRn =/* tracer conc. in Evap. & Rain */
(PID.TID 0000.0001)                 1.234567000000000E+05
(PID.TID 0000.0001)     ;
(PID.TID 0000.0001)  -----------------------------------
(PID.TID 0000.0001)  tracer number :   55
(PID.TID 0000.0001) PTRACERS_names = /* Tracer short name */
(PID.TID 0000.0001)               'c36'
(PID.TID 0000.0001)     ;
(PID.TID 0000.0001) PTRACERS_long_names = /* Tracer long name */
(PID.TID 0000.0001)               ''
(PID.TID 0000.0001)     ;
(PID.TID 0000.0001) PTRACERS_ioLabel = /* tracer IO Label */
(PID.TID 0000.0001)               '55'
(PID.TID 0000.0001)     ;
(PID.TID 0000.0001) PTRACERS_advScheme = /* Advection Scheme */
(PID.TID 0000.0001)                      33
(PID.TID 0000.0001)     ;
(PID.TID 0000.0001) PTRACERS_SOM_Advection = /* tracer uses SOM advection scheme */
(PID.TID 0000.0001)                   F
(PID.TID 0000.0001)     ;
(PID.TID 0000.0001) PTRACERS_ImplVertAdv = /* implicit vert. advection flag */
(PID.TID 0000.0001)                   F
(PID.TID 0000.0001)     ;
(PID.TID 0000.0001) PTRACERS_diffKh = /* Laplacian Diffusivity */
(PID.TID 0000.0001)                 0.000000000000000E+00
(PID.TID 0000.0001)     ;
(PID.TID 0000.0001) PTRACERS_diffK4 = /* Biharmonic Diffusivity */
(PID.TID 0000.0001)                 0.000000000000000E+00
(PID.TID 0000.0001)     ;
(PID.TID 0000.0001) PTRACERS_diffKrNr = /* Vertical Diffusivity */
(PID.TID 0000.0001)    23 @  1.000000000000000E-05              /* K =  1: 23 */
(PID.TID 0000.0001)     ;
(PID.TID 0000.0001) PTRACERS_useGMRedi = /* apply GM-Redi */
(PID.TID 0000.0001)                   T
(PID.TID 0000.0001)     ;
(PID.TID 0000.0001) PTRACERS_useDWNSLP = /* apply DOWN-SLOPE Flow */
(PID.TID 0000.0001)                   F
(PID.TID 0000.0001)     ;
(PID.TID 0000.0001) PTRACERS_useKPP = /* apply KPP scheme */
(PID.TID 0000.0001)                   T
(PID.TID 0000.0001)     ;
(PID.TID 0000.0001) PTRACERS_ref = /* Reference vertical profile */
(PID.TID 0000.0001)    23 @  0.000000000000000E+00              /* K =  1: 23 */
(PID.TID 0000.0001)     ;
(PID.TID 0000.0001) PTRACERS_EvPrRn =/* tracer conc. in Evap. & Rain */
(PID.TID 0000.0001)                 1.234567000000000E+05
(PID.TID 0000.0001)     ;
(PID.TID 0000.0001)  -----------------------------------
(PID.TID 0000.0001)  tracer number :   56
(PID.TID 0000.0001) PTRACERS_names = /* Tracer short name */
(PID.TID 0000.0001)               'c37'
(PID.TID 0000.0001)     ;
(PID.TID 0000.0001) PTRACERS_long_names = /* Tracer long name */
(PID.TID 0000.0001)               ''
(PID.TID 0000.0001)     ;
(PID.TID 0000.0001) PTRACERS_ioLabel = /* tracer IO Label */
(PID.TID 0000.0001)               '56'
(PID.TID 0000.0001)     ;
(PID.TID 0000.0001) PTRACERS_advScheme = /* Advection Scheme */
(PID.TID 0000.0001)                      33
(PID.TID 0000.0001)     ;
(PID.TID 0000.0001) PTRACERS_SOM_Advection = /* tracer uses SOM advection scheme */
(PID.TID 0000.0001)                   F
(PID.TID 0000.0001)     ;
(PID.TID 0000.0001) PTRACERS_ImplVertAdv = /* implicit vert. advection flag */
(PID.TID 0000.0001)                   F
(PID.TID 0000.0001)     ;
(PID.TID 0000.0001) PTRACERS_diffKh = /* Laplacian Diffusivity */
(PID.TID 0000.0001)                 0.000000000000000E+00
(PID.TID 0000.0001)     ;
(PID.TID 0000.0001) PTRACERS_diffK4 = /* Biharmonic Diffusivity */
(PID.TID 0000.0001)                 0.000000000000000E+00
(PID.TID 0000.0001)     ;
(PID.TID 0000.0001) PTRACERS_diffKrNr = /* Vertical Diffusivity */
(PID.TID 0000.0001)    23 @  1.000000000000000E-05              /* K =  1: 23 */
(PID.TID 0000.0001)     ;
(PID.TID 0000.0001) PTRACERS_useGMRedi = /* apply GM-Redi */
(PID.TID 0000.0001)                   T
(PID.TID 0000.0001)     ;
(PID.TID 0000.0001) PTRACERS_useDWNSLP = /* apply DOWN-SLOPE Flow */
(PID.TID 0000.0001)                   F
(PID.TID 0000.0001)     ;
(PID.TID 0000.0001) PTRACERS_useKPP = /* apply KPP scheme */
(PID.TID 0000.0001)                   T
(PID.TID 0000.0001)     ;
(PID.TID 0000.0001) PTRACERS_ref = /* Reference vertical profile */
(PID.TID 0000.0001)    23 @  0.000000000000000E+00              /* K =  1: 23 */
(PID.TID 0000.0001)     ;
(PID.TID 0000.0001) PTRACERS_EvPrRn =/* tracer conc. in Evap. & Rain */
(PID.TID 0000.0001)                 1.234567000000000E+05
(PID.TID 0000.0001)     ;
(PID.TID 0000.0001)  -----------------------------------
(PID.TID 0000.0001)  tracer number :   57
(PID.TID 0000.0001) PTRACERS_names = /* Tracer short name */
(PID.TID 0000.0001)               'c38'
(PID.TID 0000.0001)     ;
(PID.TID 0000.0001) PTRACERS_long_names = /* Tracer long name */
(PID.TID 0000.0001)               ''
(PID.TID 0000.0001)     ;
(PID.TID 0000.0001) PTRACERS_ioLabel = /* tracer IO Label */
(PID.TID 0000.0001)               '57'
(PID.TID 0000.0001)     ;
(PID.TID 0000.0001) PTRACERS_advScheme = /* Advection Scheme */
(PID.TID 0000.0001)                      33
(PID.TID 0000.0001)     ;
(PID.TID 0000.0001) PTRACERS_SOM_Advection = /* tracer uses SOM advection scheme */
(PID.TID 0000.0001)                   F
(PID.TID 0000.0001)     ;
(PID.TID 0000.0001) PTRACERS_ImplVertAdv = /* implicit vert. advection flag */
(PID.TID 0000.0001)                   F
(PID.TID 0000.0001)     ;
(PID.TID 0000.0001) PTRACERS_diffKh = /* Laplacian Diffusivity */
(PID.TID 0000.0001)                 0.000000000000000E+00
(PID.TID 0000.0001)     ;
(PID.TID 0000.0001) PTRACERS_diffK4 = /* Biharmonic Diffusivity */
(PID.TID 0000.0001)                 0.000000000000000E+00
(PID.TID 0000.0001)     ;
(PID.TID 0000.0001) PTRACERS_diffKrNr = /* Vertical Diffusivity */
(PID.TID 0000.0001)    23 @  1.000000000000000E-05              /* K =  1: 23 */
(PID.TID 0000.0001)     ;
(PID.TID 0000.0001) PTRACERS_useGMRedi = /* apply GM-Redi */
(PID.TID 0000.0001)                   T
(PID.TID 0000.0001)     ;
(PID.TID 0000.0001) PTRACERS_useDWNSLP = /* apply DOWN-SLOPE Flow */
(PID.TID 0000.0001)                   F
(PID.TID 0000.0001)     ;
(PID.TID 0000.0001) PTRACERS_useKPP = /* apply KPP scheme */
(PID.TID 0000.0001)                   T
(PID.TID 0000.0001)     ;
(PID.TID 0000.0001) PTRACERS_ref = /* Reference vertical profile */
(PID.TID 0000.0001)    23 @  0.000000000000000E+00              /* K =  1: 23 */
(PID.TID 0000.0001)     ;
(PID.TID 0000.0001) PTRACERS_EvPrRn =/* tracer conc. in Evap. & Rain */
(PID.TID 0000.0001)                 1.234567000000000E+05
(PID.TID 0000.0001)     ;
(PID.TID 0000.0001)  -----------------------------------
(PID.TID 0000.0001)  tracer number :   58
(PID.TID 0000.0001) PTRACERS_names = /* Tracer short name */
(PID.TID 0000.0001)               'n01'
(PID.TID 0000.0001)     ;
(PID.TID 0000.0001) PTRACERS_long_names = /* Tracer long name */
(PID.TID 0000.0001)               ''
(PID.TID 0000.0001)     ;
(PID.TID 0000.0001) PTRACERS_ioLabel = /* tracer IO Label */
(PID.TID 0000.0001)               '58'
(PID.TID 0000.0001)     ;
(PID.TID 0000.0001) PTRACERS_advScheme = /* Advection Scheme */
(PID.TID 0000.0001)                      33
(PID.TID 0000.0001)     ;
(PID.TID 0000.0001) PTRACERS_SOM_Advection = /* tracer uses SOM advection scheme */
(PID.TID 0000.0001)                   F
(PID.TID 0000.0001)     ;
(PID.TID 0000.0001) PTRACERS_ImplVertAdv = /* implicit vert. advection flag */
(PID.TID 0000.0001)                   F
(PID.TID 0000.0001)     ;
(PID.TID 0000.0001) PTRACERS_diffKh = /* Laplacian Diffusivity */
(PID.TID 0000.0001)                 0.000000000000000E+00
(PID.TID 0000.0001)     ;
(PID.TID 0000.0001) PTRACERS_diffK4 = /* Biharmonic Diffusivity */
(PID.TID 0000.0001)                 0.000000000000000E+00
(PID.TID 0000.0001)     ;
(PID.TID 0000.0001) PTRACERS_diffKrNr = /* Vertical Diffusivity */
(PID.TID 0000.0001)    23 @  1.000000000000000E-05              /* K =  1: 23 */
(PID.TID 0000.0001)     ;
(PID.TID 0000.0001) PTRACERS_useGMRedi = /* apply GM-Redi */
(PID.TID 0000.0001)                   T
(PID.TID 0000.0001)     ;
(PID.TID 0000.0001) PTRACERS_useDWNSLP = /* apply DOWN-SLOPE Flow */
(PID.TID 0000.0001)                   F
(PID.TID 0000.0001)     ;
(PID.TID 0000.0001) PTRACERS_useKPP = /* apply KPP scheme */
(PID.TID 0000.0001)                   T
(PID.TID 0000.0001)     ;
(PID.TID 0000.0001) PTRACERS_ref = /* Reference vertical profile */
(PID.TID 0000.0001)    23 @  0.000000000000000E+00              /* K =  1: 23 */
(PID.TID 0000.0001)     ;
(PID.TID 0000.0001) PTRACERS_EvPrRn =/* tracer conc. in Evap. & Rain */
(PID.TID 0000.0001)                 1.234567000000000E+05
(PID.TID 0000.0001)     ;
(PID.TID 0000.0001)  -----------------------------------
(PID.TID 0000.0001)  tracer number :   59
(PID.TID 0000.0001) PTRACERS_names = /* Tracer short name */
(PID.TID 0000.0001)               'n02'
(PID.TID 0000.0001)     ;
(PID.TID 0000.0001) PTRACERS_long_names = /* Tracer long name */
(PID.TID 0000.0001)               ''
(PID.TID 0000.0001)     ;
(PID.TID 0000.0001) PTRACERS_ioLabel = /* tracer IO Label */
(PID.TID 0000.0001)               '59'
(PID.TID 0000.0001)     ;
(PID.TID 0000.0001) PTRACERS_advScheme = /* Advection Scheme */
(PID.TID 0000.0001)                      33
(PID.TID 0000.0001)     ;
(PID.TID 0000.0001) PTRACERS_SOM_Advection = /* tracer uses SOM advection scheme */
(PID.TID 0000.0001)                   F
(PID.TID 0000.0001)     ;
(PID.TID 0000.0001) PTRACERS_ImplVertAdv = /* implicit vert. advection flag */
(PID.TID 0000.0001)                   F
(PID.TID 0000.0001)     ;
(PID.TID 0000.0001) PTRACERS_diffKh = /* Laplacian Diffusivity */
(PID.TID 0000.0001)                 0.000000000000000E+00
(PID.TID 0000.0001)     ;
(PID.TID 0000.0001) PTRACERS_diffK4 = /* Biharmonic Diffusivity */
(PID.TID 0000.0001)                 0.000000000000000E+00
(PID.TID 0000.0001)     ;
(PID.TID 0000.0001) PTRACERS_diffKrNr = /* Vertical Diffusivity */
(PID.TID 0000.0001)    23 @  1.000000000000000E-05              /* K =  1: 23 */
(PID.TID 0000.0001)     ;
(PID.TID 0000.0001) PTRACERS_useGMRedi = /* apply GM-Redi */
(PID.TID 0000.0001)                   T
(PID.TID 0000.0001)     ;
(PID.TID 0000.0001) PTRACERS_useDWNSLP = /* apply DOWN-SLOPE Flow */
(PID.TID 0000.0001)                   F
(PID.TID 0000.0001)     ;
(PID.TID 0000.0001) PTRACERS_useKPP = /* apply KPP scheme */
(PID.TID 0000.0001)                   T
(PID.TID 0000.0001)     ;
(PID.TID 0000.0001) PTRACERS_ref = /* Reference vertical profile */
(PID.TID 0000.0001)    23 @  0.000000000000000E+00              /* K =  1: 23 */
(PID.TID 0000.0001)     ;
(PID.TID 0000.0001) PTRACERS_EvPrRn =/* tracer conc. in Evap. & Rain */
(PID.TID 0000.0001)                 1.234567000000000E+05
(PID.TID 0000.0001)     ;
(PID.TID 0000.0001)  -----------------------------------
(PID.TID 0000.0001)  tracer number :   60
(PID.TID 0000.0001) PTRACERS_names = /* Tracer short name */
(PID.TID 0000.0001)               'n03'
(PID.TID 0000.0001)     ;
(PID.TID 0000.0001) PTRACERS_long_names = /* Tracer long name */
(PID.TID 0000.0001)               ''
(PID.TID 0000.0001)     ;
(PID.TID 0000.0001) PTRACERS_ioLabel = /* tracer IO Label */
(PID.TID 0000.0001)               '60'
(PID.TID 0000.0001)     ;
(PID.TID 0000.0001) PTRACERS_advScheme = /* Advection Scheme */
(PID.TID 0000.0001)                      33
(PID.TID 0000.0001)     ;
(PID.TID 0000.0001) PTRACERS_SOM_Advection = /* tracer uses SOM advection scheme */
(PID.TID 0000.0001)                   F
(PID.TID 0000.0001)     ;
(PID.TID 0000.0001) PTRACERS_ImplVertAdv = /* implicit vert. advection flag */
(PID.TID 0000.0001)                   F
(PID.TID 0000.0001)     ;
(PID.TID 0000.0001) PTRACERS_diffKh = /* Laplacian Diffusivity */
(PID.TID 0000.0001)                 0.000000000000000E+00
(PID.TID 0000.0001)     ;
(PID.TID 0000.0001) PTRACERS_diffK4 = /* Biharmonic Diffusivity */
(PID.TID 0000.0001)                 0.000000000000000E+00
(PID.TID 0000.0001)     ;
(PID.TID 0000.0001) PTRACERS_diffKrNr = /* Vertical Diffusivity */
(PID.TID 0000.0001)    23 @  1.000000000000000E-05              /* K =  1: 23 */
(PID.TID 0000.0001)     ;
(PID.TID 0000.0001) PTRACERS_useGMRedi = /* apply GM-Redi */
(PID.TID 0000.0001)                   T
(PID.TID 0000.0001)     ;
(PID.TID 0000.0001) PTRACERS_useDWNSLP = /* apply DOWN-SLOPE Flow */
(PID.TID 0000.0001)                   F
(PID.TID 0000.0001)     ;
(PID.TID 0000.0001) PTRACERS_useKPP = /* apply KPP scheme */
(PID.TID 0000.0001)                   T
(PID.TID 0000.0001)     ;
(PID.TID 0000.0001) PTRACERS_ref = /* Reference vertical profile */
(PID.TID 0000.0001)    23 @  0.000000000000000E+00              /* K =  1: 23 */
(PID.TID 0000.0001)     ;
(PID.TID 0000.0001) PTRACERS_EvPrRn =/* tracer conc. in Evap. & Rain */
(PID.TID 0000.0001)                 1.234567000000000E+05
(PID.TID 0000.0001)     ;
(PID.TID 0000.0001)  -----------------------------------
(PID.TID 0000.0001)  tracer number :   61
(PID.TID 0000.0001) PTRACERS_names = /* Tracer short name */
(PID.TID 0000.0001)               'n04'
(PID.TID 0000.0001)     ;
(PID.TID 0000.0001) PTRACERS_long_names = /* Tracer long name */
(PID.TID 0000.0001)               ''
(PID.TID 0000.0001)     ;
(PID.TID 0000.0001) PTRACERS_ioLabel = /* tracer IO Label */
(PID.TID 0000.0001)               '61'
(PID.TID 0000.0001)     ;
(PID.TID 0000.0001) PTRACERS_advScheme = /* Advection Scheme */
(PID.TID 0000.0001)                      33
(PID.TID 0000.0001)     ;
(PID.TID 0000.0001) PTRACERS_SOM_Advection = /* tracer uses SOM advection scheme */
(PID.TID 0000.0001)                   F
(PID.TID 0000.0001)     ;
(PID.TID 0000.0001) PTRACERS_ImplVertAdv = /* implicit vert. advection flag */
(PID.TID 0000.0001)                   F
(PID.TID 0000.0001)     ;
(PID.TID 0000.0001) PTRACERS_diffKh = /* Laplacian Diffusivity */
(PID.TID 0000.0001)                 0.000000000000000E+00
(PID.TID 0000.0001)     ;
(PID.TID 0000.0001) PTRACERS_diffK4 = /* Biharmonic Diffusivity */
(PID.TID 0000.0001)                 0.000000000000000E+00
(PID.TID 0000.0001)     ;
(PID.TID 0000.0001) PTRACERS_diffKrNr = /* Vertical Diffusivity */
(PID.TID 0000.0001)    23 @  1.000000000000000E-05              /* K =  1: 23 */
(PID.TID 0000.0001)     ;
(PID.TID 0000.0001) PTRACERS_useGMRedi = /* apply GM-Redi */
(PID.TID 0000.0001)                   T
(PID.TID 0000.0001)     ;
(PID.TID 0000.0001) PTRACERS_useDWNSLP = /* apply DOWN-SLOPE Flow */
(PID.TID 0000.0001)                   F
(PID.TID 0000.0001)     ;
(PID.TID 0000.0001) PTRACERS_useKPP = /* apply KPP scheme */
(PID.TID 0000.0001)                   T
(PID.TID 0000.0001)     ;
(PID.TID 0000.0001) PTRACERS_ref = /* Reference vertical profile */
(PID.TID 0000.0001)    23 @  0.000000000000000E+00              /* K =  1: 23 */
(PID.TID 0000.0001)     ;
(PID.TID 0000.0001) PTRACERS_EvPrRn =/* tracer conc. in Evap. & Rain */
(PID.TID 0000.0001)                 1.234567000000000E+05
(PID.TID 0000.0001)     ;
(PID.TID 0000.0001)  -----------------------------------
(PID.TID 0000.0001)  tracer number :   62
(PID.TID 0000.0001) PTRACERS_names = /* Tracer short name */
(PID.TID 0000.0001)               'n05'
(PID.TID 0000.0001)     ;
(PID.TID 0000.0001) PTRACERS_long_names = /* Tracer long name */
(PID.TID 0000.0001)               ''
(PID.TID 0000.0001)     ;
(PID.TID 0000.0001) PTRACERS_ioLabel = /* tracer IO Label */
(PID.TID 0000.0001)               '62'
(PID.TID 0000.0001)     ;
(PID.TID 0000.0001) PTRACERS_advScheme = /* Advection Scheme */
(PID.TID 0000.0001)                      33
(PID.TID 0000.0001)     ;
(PID.TID 0000.0001) PTRACERS_SOM_Advection = /* tracer uses SOM advection scheme */
(PID.TID 0000.0001)                   F
(PID.TID 0000.0001)     ;
(PID.TID 0000.0001) PTRACERS_ImplVertAdv = /* implicit vert. advection flag */
(PID.TID 0000.0001)                   F
(PID.TID 0000.0001)     ;
(PID.TID 0000.0001) PTRACERS_diffKh = /* Laplacian Diffusivity */
(PID.TID 0000.0001)                 0.000000000000000E+00
(PID.TID 0000.0001)     ;
(PID.TID 0000.0001) PTRACERS_diffK4 = /* Biharmonic Diffusivity */
(PID.TID 0000.0001)                 0.000000000000000E+00
(PID.TID 0000.0001)     ;
(PID.TID 0000.0001) PTRACERS_diffKrNr = /* Vertical Diffusivity */
(PID.TID 0000.0001)    23 @  1.000000000000000E-05              /* K =  1: 23 */
(PID.TID 0000.0001)     ;
(PID.TID 0000.0001) PTRACERS_useGMRedi = /* apply GM-Redi */
(PID.TID 0000.0001)                   T
(PID.TID 0000.0001)     ;
(PID.TID 0000.0001) PTRACERS_useDWNSLP = /* apply DOWN-SLOPE Flow */
(PID.TID 0000.0001)                   F
(PID.TID 0000.0001)     ;
(PID.TID 0000.0001) PTRACERS_useKPP = /* apply KPP scheme */
(PID.TID 0000.0001)                   T
(PID.TID 0000.0001)     ;
(PID.TID 0000.0001) PTRACERS_ref = /* Reference vertical profile */
(PID.TID 0000.0001)    23 @  0.000000000000000E+00              /* K =  1: 23 */
(PID.TID 0000.0001)     ;
(PID.TID 0000.0001) PTRACERS_EvPrRn =/* tracer conc. in Evap. & Rain */
(PID.TID 0000.0001)                 1.234567000000000E+05
(PID.TID 0000.0001)     ;
(PID.TID 0000.0001)  -----------------------------------
(PID.TID 0000.0001)  tracer number :   63
(PID.TID 0000.0001) PTRACERS_names = /* Tracer short name */
(PID.TID 0000.0001)               'n06'
(PID.TID 0000.0001)     ;
(PID.TID 0000.0001) PTRACERS_long_names = /* Tracer long name */
(PID.TID 0000.0001)               ''
(PID.TID 0000.0001)     ;
(PID.TID 0000.0001) PTRACERS_ioLabel = /* tracer IO Label */
(PID.TID 0000.0001)               '63'
(PID.TID 0000.0001)     ;
(PID.TID 0000.0001) PTRACERS_advScheme = /* Advection Scheme */
(PID.TID 0000.0001)                      33
(PID.TID 0000.0001)     ;
(PID.TID 0000.0001) PTRACERS_SOM_Advection = /* tracer uses SOM advection scheme */
(PID.TID 0000.0001)                   F
(PID.TID 0000.0001)     ;
(PID.TID 0000.0001) PTRACERS_ImplVertAdv = /* implicit vert. advection flag */
(PID.TID 0000.0001)                   F
(PID.TID 0000.0001)     ;
(PID.TID 0000.0001) PTRACERS_diffKh = /* Laplacian Diffusivity */
(PID.TID 0000.0001)                 0.000000000000000E+00
(PID.TID 0000.0001)     ;
(PID.TID 0000.0001) PTRACERS_diffK4 = /* Biharmonic Diffusivity */
(PID.TID 0000.0001)                 0.000000000000000E+00
(PID.TID 0000.0001)     ;
(PID.TID 0000.0001) PTRACERS_diffKrNr = /* Vertical Diffusivity */
(PID.TID 0000.0001)    23 @  1.000000000000000E-05              /* K =  1: 23 */
(PID.TID 0000.0001)     ;
(PID.TID 0000.0001) PTRACERS_useGMRedi = /* apply GM-Redi */
(PID.TID 0000.0001)                   T
(PID.TID 0000.0001)     ;
(PID.TID 0000.0001) PTRACERS_useDWNSLP = /* apply DOWN-SLOPE Flow */
(PID.TID 0000.0001)                   F
(PID.TID 0000.0001)     ;
(PID.TID 0000.0001) PTRACERS_useKPP = /* apply KPP scheme */
(PID.TID 0000.0001)                   T
(PID.TID 0000.0001)     ;
(PID.TID 0000.0001) PTRACERS_ref = /* Reference vertical profile */
(PID.TID 0000.0001)    23 @  0.000000000000000E+00              /* K =  1: 23 */
(PID.TID 0000.0001)     ;
(PID.TID 0000.0001) PTRACERS_EvPrRn =/* tracer conc. in Evap. & Rain */
(PID.TID 0000.0001)                 1.234567000000000E+05
(PID.TID 0000.0001)     ;
(PID.TID 0000.0001)  -----------------------------------
(PID.TID 0000.0001)  tracer number :   64
(PID.TID 0000.0001) PTRACERS_names = /* Tracer short name */
(PID.TID 0000.0001)               'n07'
(PID.TID 0000.0001)     ;
(PID.TID 0000.0001) PTRACERS_long_names = /* Tracer long name */
(PID.TID 0000.0001)               ''
(PID.TID 0000.0001)     ;
(PID.TID 0000.0001) PTRACERS_ioLabel = /* tracer IO Label */
(PID.TID 0000.0001)               '64'
(PID.TID 0000.0001)     ;
(PID.TID 0000.0001) PTRACERS_advScheme = /* Advection Scheme */
(PID.TID 0000.0001)                      33
(PID.TID 0000.0001)     ;
(PID.TID 0000.0001) PTRACERS_SOM_Advection = /* tracer uses SOM advection scheme */
(PID.TID 0000.0001)                   F
(PID.TID 0000.0001)     ;
(PID.TID 0000.0001) PTRACERS_ImplVertAdv = /* implicit vert. advection flag */
(PID.TID 0000.0001)                   F
(PID.TID 0000.0001)     ;
(PID.TID 0000.0001) PTRACERS_diffKh = /* Laplacian Diffusivity */
(PID.TID 0000.0001)                 0.000000000000000E+00
(PID.TID 0000.0001)     ;
(PID.TID 0000.0001) PTRACERS_diffK4 = /* Biharmonic Diffusivity */
(PID.TID 0000.0001)                 0.000000000000000E+00
(PID.TID 0000.0001)     ;
(PID.TID 0000.0001) PTRACERS_diffKrNr = /* Vertical Diffusivity */
(PID.TID 0000.0001)    23 @  1.000000000000000E-05              /* K =  1: 23 */
(PID.TID 0000.0001)     ;
(PID.TID 0000.0001) PTRACERS_useGMRedi = /* apply GM-Redi */
(PID.TID 0000.0001)                   T
(PID.TID 0000.0001)     ;
(PID.TID 0000.0001) PTRACERS_useDWNSLP = /* apply DOWN-SLOPE Flow */
(PID.TID 0000.0001)                   F
(PID.TID 0000.0001)     ;
(PID.TID 0000.0001) PTRACERS_useKPP = /* apply KPP scheme */
(PID.TID 0000.0001)                   T
(PID.TID 0000.0001)     ;
(PID.TID 0000.0001) PTRACERS_ref = /* Reference vertical profile */
(PID.TID 0000.0001)    23 @  0.000000000000000E+00              /* K =  1: 23 */
(PID.TID 0000.0001)     ;
(PID.TID 0000.0001) PTRACERS_EvPrRn =/* tracer conc. in Evap. & Rain */
(PID.TID 0000.0001)                 1.234567000000000E+05
(PID.TID 0000.0001)     ;
(PID.TID 0000.0001)  -----------------------------------
(PID.TID 0000.0001)  tracer number :   65
(PID.TID 0000.0001) PTRACERS_names = /* Tracer short name */
(PID.TID 0000.0001)               'n08'
(PID.TID 0000.0001)     ;
(PID.TID 0000.0001) PTRACERS_long_names = /* Tracer long name */
(PID.TID 0000.0001)               ''
(PID.TID 0000.0001)     ;
(PID.TID 0000.0001) PTRACERS_ioLabel = /* tracer IO Label */
(PID.TID 0000.0001)               '65'
(PID.TID 0000.0001)     ;
(PID.TID 0000.0001) PTRACERS_advScheme = /* Advection Scheme */
(PID.TID 0000.0001)                      33
(PID.TID 0000.0001)     ;
(PID.TID 0000.0001) PTRACERS_SOM_Advection = /* tracer uses SOM advection scheme */
(PID.TID 0000.0001)                   F
(PID.TID 0000.0001)     ;
(PID.TID 0000.0001) PTRACERS_ImplVertAdv = /* implicit vert. advection flag */
(PID.TID 0000.0001)                   F
(PID.TID 0000.0001)     ;
(PID.TID 0000.0001) PTRACERS_diffKh = /* Laplacian Diffusivity */
(PID.TID 0000.0001)                 0.000000000000000E+00
(PID.TID 0000.0001)     ;
(PID.TID 0000.0001) PTRACERS_diffK4 = /* Biharmonic Diffusivity */
(PID.TID 0000.0001)                 0.000000000000000E+00
(PID.TID 0000.0001)     ;
(PID.TID 0000.0001) PTRACERS_diffKrNr = /* Vertical Diffusivity */
(PID.TID 0000.0001)    23 @  1.000000000000000E-05              /* K =  1: 23 */
(PID.TID 0000.0001)     ;
(PID.TID 0000.0001) PTRACERS_useGMRedi = /* apply GM-Redi */
(PID.TID 0000.0001)                   T
(PID.TID 0000.0001)     ;
(PID.TID 0000.0001) PTRACERS_useDWNSLP = /* apply DOWN-SLOPE Flow */
(PID.TID 0000.0001)                   F
(PID.TID 0000.0001)     ;
(PID.TID 0000.0001) PTRACERS_useKPP = /* apply KPP scheme */
(PID.TID 0000.0001)                   T
(PID.TID 0000.0001)     ;
(PID.TID 0000.0001) PTRACERS_ref = /* Reference vertical profile */
(PID.TID 0000.0001)    23 @  0.000000000000000E+00              /* K =  1: 23 */
(PID.TID 0000.0001)     ;
(PID.TID 0000.0001) PTRACERS_EvPrRn =/* tracer conc. in Evap. & Rain */
(PID.TID 0000.0001)                 1.234567000000000E+05
(PID.TID 0000.0001)     ;
(PID.TID 0000.0001)  -----------------------------------
(PID.TID 0000.0001)  tracer number :   66
(PID.TID 0000.0001) PTRACERS_names = /* Tracer short name */
(PID.TID 0000.0001)               'n09'
(PID.TID 0000.0001)     ;
(PID.TID 0000.0001) PTRACERS_long_names = /* Tracer long name */
(PID.TID 0000.0001)               ''
(PID.TID 0000.0001)     ;
(PID.TID 0000.0001) PTRACERS_ioLabel = /* tracer IO Label */
(PID.TID 0000.0001)               '66'
(PID.TID 0000.0001)     ;
(PID.TID 0000.0001) PTRACERS_advScheme = /* Advection Scheme */
(PID.TID 0000.0001)                      33
(PID.TID 0000.0001)     ;
(PID.TID 0000.0001) PTRACERS_SOM_Advection = /* tracer uses SOM advection scheme */
(PID.TID 0000.0001)                   F
(PID.TID 0000.0001)     ;
(PID.TID 0000.0001) PTRACERS_ImplVertAdv = /* implicit vert. advection flag */
(PID.TID 0000.0001)                   F
(PID.TID 0000.0001)     ;
(PID.TID 0000.0001) PTRACERS_diffKh = /* Laplacian Diffusivity */
(PID.TID 0000.0001)                 0.000000000000000E+00
(PID.TID 0000.0001)     ;
(PID.TID 0000.0001) PTRACERS_diffK4 = /* Biharmonic Diffusivity */
(PID.TID 0000.0001)                 0.000000000000000E+00
(PID.TID 0000.0001)     ;
(PID.TID 0000.0001) PTRACERS_diffKrNr = /* Vertical Diffusivity */
(PID.TID 0000.0001)    23 @  1.000000000000000E-05              /* K =  1: 23 */
(PID.TID 0000.0001)     ;
(PID.TID 0000.0001) PTRACERS_useGMRedi = /* apply GM-Redi */
(PID.TID 0000.0001)                   T
(PID.TID 0000.0001)     ;
(PID.TID 0000.0001) PTRACERS_useDWNSLP = /* apply DOWN-SLOPE Flow */
(PID.TID 0000.0001)                   F
(PID.TID 0000.0001)     ;
(PID.TID 0000.0001) PTRACERS_useKPP = /* apply KPP scheme */
(PID.TID 0000.0001)                   T
(PID.TID 0000.0001)     ;
(PID.TID 0000.0001) PTRACERS_ref = /* Reference vertical profile */
(PID.TID 0000.0001)    23 @  0.000000000000000E+00              /* K =  1: 23 */
(PID.TID 0000.0001)     ;
(PID.TID 0000.0001) PTRACERS_EvPrRn =/* tracer conc. in Evap. & Rain */
(PID.TID 0000.0001)                 1.234567000000000E+05
(PID.TID 0000.0001)     ;
(PID.TID 0000.0001)  -----------------------------------
(PID.TID 0000.0001)  tracer number :   67
(PID.TID 0000.0001) PTRACERS_names = /* Tracer short name */
(PID.TID 0000.0001)               'n10'
(PID.TID 0000.0001)     ;
(PID.TID 0000.0001) PTRACERS_long_names = /* Tracer long name */
(PID.TID 0000.0001)               ''
(PID.TID 0000.0001)     ;
(PID.TID 0000.0001) PTRACERS_ioLabel = /* tracer IO Label */
(PID.TID 0000.0001)               '67'
(PID.TID 0000.0001)     ;
(PID.TID 0000.0001) PTRACERS_advScheme = /* Advection Scheme */
(PID.TID 0000.0001)                      33
(PID.TID 0000.0001)     ;
(PID.TID 0000.0001) PTRACERS_SOM_Advection = /* tracer uses SOM advection scheme */
(PID.TID 0000.0001)                   F
(PID.TID 0000.0001)     ;
(PID.TID 0000.0001) PTRACERS_ImplVertAdv = /* implicit vert. advection flag */
(PID.TID 0000.0001)                   F
(PID.TID 0000.0001)     ;
(PID.TID 0000.0001) PTRACERS_diffKh = /* Laplacian Diffusivity */
(PID.TID 0000.0001)                 0.000000000000000E+00
(PID.TID 0000.0001)     ;
(PID.TID 0000.0001) PTRACERS_diffK4 = /* Biharmonic Diffusivity */
(PID.TID 0000.0001)                 0.000000000000000E+00
(PID.TID 0000.0001)     ;
(PID.TID 0000.0001) PTRACERS_diffKrNr = /* Vertical Diffusivity */
(PID.TID 0000.0001)    23 @  1.000000000000000E-05              /* K =  1: 23 */
(PID.TID 0000.0001)     ;
(PID.TID 0000.0001) PTRACERS_useGMRedi = /* apply GM-Redi */
(PID.TID 0000.0001)                   T
(PID.TID 0000.0001)     ;
(PID.TID 0000.0001) PTRACERS_useDWNSLP = /* apply DOWN-SLOPE Flow */
(PID.TID 0000.0001)                   F
(PID.TID 0000.0001)     ;
(PID.TID 0000.0001) PTRACERS_useKPP = /* apply KPP scheme */
(PID.TID 0000.0001)                   T
(PID.TID 0000.0001)     ;
(PID.TID 0000.0001) PTRACERS_ref = /* Reference vertical profile */
(PID.TID 0000.0001)    23 @  0.000000000000000E+00              /* K =  1: 23 */
(PID.TID 0000.0001)     ;
(PID.TID 0000.0001) PTRACERS_EvPrRn =/* tracer conc. in Evap. & Rain */
(PID.TID 0000.0001)                 1.234567000000000E+05
(PID.TID 0000.0001)     ;
(PID.TID 0000.0001)  -----------------------------------
(PID.TID 0000.0001)  tracer number :   68
(PID.TID 0000.0001) PTRACERS_names = /* Tracer short name */
(PID.TID 0000.0001)               'n11'
(PID.TID 0000.0001)     ;
(PID.TID 0000.0001) PTRACERS_long_names = /* Tracer long name */
(PID.TID 0000.0001)               ''
(PID.TID 0000.0001)     ;
(PID.TID 0000.0001) PTRACERS_ioLabel = /* tracer IO Label */
(PID.TID 0000.0001)               '68'
(PID.TID 0000.0001)     ;
(PID.TID 0000.0001) PTRACERS_advScheme = /* Advection Scheme */
(PID.TID 0000.0001)                      33
(PID.TID 0000.0001)     ;
(PID.TID 0000.0001) PTRACERS_SOM_Advection = /* tracer uses SOM advection scheme */
(PID.TID 0000.0001)                   F
(PID.TID 0000.0001)     ;
(PID.TID 0000.0001) PTRACERS_ImplVertAdv = /* implicit vert. advection flag */
(PID.TID 0000.0001)                   F
(PID.TID 0000.0001)     ;
(PID.TID 0000.0001) PTRACERS_diffKh = /* Laplacian Diffusivity */
(PID.TID 0000.0001)                 0.000000000000000E+00
(PID.TID 0000.0001)     ;
(PID.TID 0000.0001) PTRACERS_diffK4 = /* Biharmonic Diffusivity */
(PID.TID 0000.0001)                 0.000000000000000E+00
(PID.TID 0000.0001)     ;
(PID.TID 0000.0001) PTRACERS_diffKrNr = /* Vertical Diffusivity */
(PID.TID 0000.0001)    23 @  1.000000000000000E-05              /* K =  1: 23 */
(PID.TID 0000.0001)     ;
(PID.TID 0000.0001) PTRACERS_useGMRedi = /* apply GM-Redi */
(PID.TID 0000.0001)                   T
(PID.TID 0000.0001)     ;
(PID.TID 0000.0001) PTRACERS_useDWNSLP = /* apply DOWN-SLOPE Flow */
(PID.TID 0000.0001)                   F
(PID.TID 0000.0001)     ;
(PID.TID 0000.0001) PTRACERS_useKPP = /* apply KPP scheme */
(PID.TID 0000.0001)                   T
(PID.TID 0000.0001)     ;
(PID.TID 0000.0001) PTRACERS_ref = /* Reference vertical profile */
(PID.TID 0000.0001)    23 @  0.000000000000000E+00              /* K =  1: 23 */
(PID.TID 0000.0001)     ;
(PID.TID 0000.0001) PTRACERS_EvPrRn =/* tracer conc. in Evap. & Rain */
(PID.TID 0000.0001)                 1.234567000000000E+05
(PID.TID 0000.0001)     ;
(PID.TID 0000.0001)  -----------------------------------
(PID.TID 0000.0001)  tracer number :   69
(PID.TID 0000.0001) PTRACERS_names = /* Tracer short name */
(PID.TID 0000.0001)               'n12'
(PID.TID 0000.0001)     ;
(PID.TID 0000.0001) PTRACERS_long_names = /* Tracer long name */
(PID.TID 0000.0001)               ''
(PID.TID 0000.0001)     ;
(PID.TID 0000.0001) PTRACERS_ioLabel = /* tracer IO Label */
(PID.TID 0000.0001)               '69'
(PID.TID 0000.0001)     ;
(PID.TID 0000.0001) PTRACERS_advScheme = /* Advection Scheme */
(PID.TID 0000.0001)                      33
(PID.TID 0000.0001)     ;
(PID.TID 0000.0001) PTRACERS_SOM_Advection = /* tracer uses SOM advection scheme */
(PID.TID 0000.0001)                   F
(PID.TID 0000.0001)     ;
(PID.TID 0000.0001) PTRACERS_ImplVertAdv = /* implicit vert. advection flag */
(PID.TID 0000.0001)                   F
(PID.TID 0000.0001)     ;
(PID.TID 0000.0001) PTRACERS_diffKh = /* Laplacian Diffusivity */
(PID.TID 0000.0001)                 0.000000000000000E+00
(PID.TID 0000.0001)     ;
(PID.TID 0000.0001) PTRACERS_diffK4 = /* Biharmonic Diffusivity */
(PID.TID 0000.0001)                 0.000000000000000E+00
(PID.TID 0000.0001)     ;
(PID.TID 0000.0001) PTRACERS_diffKrNr = /* Vertical Diffusivity */
(PID.TID 0000.0001)    23 @  1.000000000000000E-05              /* K =  1: 23 */
(PID.TID 0000.0001)     ;
(PID.TID 0000.0001) PTRACERS_useGMRedi = /* apply GM-Redi */
(PID.TID 0000.0001)                   T
(PID.TID 0000.0001)     ;
(PID.TID 0000.0001) PTRACERS_useDWNSLP = /* apply DOWN-SLOPE Flow */
(PID.TID 0000.0001)                   F
(PID.TID 0000.0001)     ;
(PID.TID 0000.0001) PTRACERS_useKPP = /* apply KPP scheme */
(PID.TID 0000.0001)                   T
(PID.TID 0000.0001)     ;
(PID.TID 0000.0001) PTRACERS_ref = /* Reference vertical profile */
(PID.TID 0000.0001)    23 @  0.000000000000000E+00              /* K =  1: 23 */
(PID.TID 0000.0001)     ;
(PID.TID 0000.0001) PTRACERS_EvPrRn =/* tracer conc. in Evap. & Rain */
(PID.TID 0000.0001)                 1.234567000000000E+05
(PID.TID 0000.0001)     ;
(PID.TID 0000.0001)  -----------------------------------
(PID.TID 0000.0001)  tracer number :   70
(PID.TID 0000.0001) PTRACERS_names = /* Tracer short name */
(PID.TID 0000.0001)               'n13'
(PID.TID 0000.0001)     ;
(PID.TID 0000.0001) PTRACERS_long_names = /* Tracer long name */
(PID.TID 0000.0001)               ''
(PID.TID 0000.0001)     ;
(PID.TID 0000.0001) PTRACERS_ioLabel = /* tracer IO Label */
(PID.TID 0000.0001)               '70'
(PID.TID 0000.0001)     ;
(PID.TID 0000.0001) PTRACERS_advScheme = /* Advection Scheme */
(PID.TID 0000.0001)                      33
(PID.TID 0000.0001)     ;
(PID.TID 0000.0001) PTRACERS_SOM_Advection = /* tracer uses SOM advection scheme */
(PID.TID 0000.0001)                   F
(PID.TID 0000.0001)     ;
(PID.TID 0000.0001) PTRACERS_ImplVertAdv = /* implicit vert. advection flag */
(PID.TID 0000.0001)                   F
(PID.TID 0000.0001)     ;
(PID.TID 0000.0001) PTRACERS_diffKh = /* Laplacian Diffusivity */
(PID.TID 0000.0001)                 0.000000000000000E+00
(PID.TID 0000.0001)     ;
(PID.TID 0000.0001) PTRACERS_diffK4 = /* Biharmonic Diffusivity */
(PID.TID 0000.0001)                 0.000000000000000E+00
(PID.TID 0000.0001)     ;
(PID.TID 0000.0001) PTRACERS_diffKrNr = /* Vertical Diffusivity */
(PID.TID 0000.0001)    23 @  1.000000000000000E-05              /* K =  1: 23 */
(PID.TID 0000.0001)     ;
(PID.TID 0000.0001) PTRACERS_useGMRedi = /* apply GM-Redi */
(PID.TID 0000.0001)                   T
(PID.TID 0000.0001)     ;
(PID.TID 0000.0001) PTRACERS_useDWNSLP = /* apply DOWN-SLOPE Flow */
(PID.TID 0000.0001)                   F
(PID.TID 0000.0001)     ;
(PID.TID 0000.0001) PTRACERS_useKPP = /* apply KPP scheme */
(PID.TID 0000.0001)                   T
(PID.TID 0000.0001)     ;
(PID.TID 0000.0001) PTRACERS_ref = /* Reference vertical profile */
(PID.TID 0000.0001)    23 @  0.000000000000000E+00              /* K =  1: 23 */
(PID.TID 0000.0001)     ;
(PID.TID 0000.0001) PTRACERS_EvPrRn =/* tracer conc. in Evap. & Rain */
(PID.TID 0000.0001)                 1.234567000000000E+05
(PID.TID 0000.0001)     ;
(PID.TID 0000.0001)  -----------------------------------
(PID.TID 0000.0001)  tracer number :   71
(PID.TID 0000.0001) PTRACERS_names = /* Tracer short name */
(PID.TID 0000.0001)               'n14'
(PID.TID 0000.0001)     ;
(PID.TID 0000.0001) PTRACERS_long_names = /* Tracer long name */
(PID.TID 0000.0001)               ''
(PID.TID 0000.0001)     ;
(PID.TID 0000.0001) PTRACERS_ioLabel = /* tracer IO Label */
(PID.TID 0000.0001)               '71'
(PID.TID 0000.0001)     ;
(PID.TID 0000.0001) PTRACERS_advScheme = /* Advection Scheme */
(PID.TID 0000.0001)                      33
(PID.TID 0000.0001)     ;
(PID.TID 0000.0001) PTRACERS_SOM_Advection = /* tracer uses SOM advection scheme */
(PID.TID 0000.0001)                   F
(PID.TID 0000.0001)     ;
(PID.TID 0000.0001) PTRACERS_ImplVertAdv = /* implicit vert. advection flag */
(PID.TID 0000.0001)                   F
(PID.TID 0000.0001)     ;
(PID.TID 0000.0001) PTRACERS_diffKh = /* Laplacian Diffusivity */
(PID.TID 0000.0001)                 0.000000000000000E+00
(PID.TID 0000.0001)     ;
(PID.TID 0000.0001) PTRACERS_diffK4 = /* Biharmonic Diffusivity */
(PID.TID 0000.0001)                 0.000000000000000E+00
(PID.TID 0000.0001)     ;
(PID.TID 0000.0001) PTRACERS_diffKrNr = /* Vertical Diffusivity */
(PID.TID 0000.0001)    23 @  1.000000000000000E-05              /* K =  1: 23 */
(PID.TID 0000.0001)     ;
(PID.TID 0000.0001) PTRACERS_useGMRedi = /* apply GM-Redi */
(PID.TID 0000.0001)                   T
(PID.TID 0000.0001)     ;
(PID.TID 0000.0001) PTRACERS_useDWNSLP = /* apply DOWN-SLOPE Flow */
(PID.TID 0000.0001)                   F
(PID.TID 0000.0001)     ;
(PID.TID 0000.0001) PTRACERS_useKPP = /* apply KPP scheme */
(PID.TID 0000.0001)                   T
(PID.TID 0000.0001)     ;
(PID.TID 0000.0001) PTRACERS_ref = /* Reference vertical profile */
(PID.TID 0000.0001)    23 @  0.000000000000000E+00              /* K =  1: 23 */
(PID.TID 0000.0001)     ;
(PID.TID 0000.0001) PTRACERS_EvPrRn =/* tracer conc. in Evap. & Rain */
(PID.TID 0000.0001)                 1.234567000000000E+05
(PID.TID 0000.0001)     ;
(PID.TID 0000.0001)  -----------------------------------
(PID.TID 0000.0001)  tracer number :   72
(PID.TID 0000.0001) PTRACERS_names = /* Tracer short name */
(PID.TID 0000.0001)               'n15'
(PID.TID 0000.0001)     ;
(PID.TID 0000.0001) PTRACERS_long_names = /* Tracer long name */
(PID.TID 0000.0001)               ''
(PID.TID 0000.0001)     ;
(PID.TID 0000.0001) PTRACERS_ioLabel = /* tracer IO Label */
(PID.TID 0000.0001)               '72'
(PID.TID 0000.0001)     ;
(PID.TID 0000.0001) PTRACERS_advScheme = /* Advection Scheme */
(PID.TID 0000.0001)                      33
(PID.TID 0000.0001)     ;
(PID.TID 0000.0001) PTRACERS_SOM_Advection = /* tracer uses SOM advection scheme */
(PID.TID 0000.0001)                   F
(PID.TID 0000.0001)     ;
(PID.TID 0000.0001) PTRACERS_ImplVertAdv = /* implicit vert. advection flag */
(PID.TID 0000.0001)                   F
(PID.TID 0000.0001)     ;
(PID.TID 0000.0001) PTRACERS_diffKh = /* Laplacian Diffusivity */
(PID.TID 0000.0001)                 0.000000000000000E+00
(PID.TID 0000.0001)     ;
(PID.TID 0000.0001) PTRACERS_diffK4 = /* Biharmonic Diffusivity */
(PID.TID 0000.0001)                 0.000000000000000E+00
(PID.TID 0000.0001)     ;
(PID.TID 0000.0001) PTRACERS_diffKrNr = /* Vertical Diffusivity */
(PID.TID 0000.0001)    23 @  1.000000000000000E-05              /* K =  1: 23 */
(PID.TID 0000.0001)     ;
(PID.TID 0000.0001) PTRACERS_useGMRedi = /* apply GM-Redi */
(PID.TID 0000.0001)                   T
(PID.TID 0000.0001)     ;
(PID.TID 0000.0001) PTRACERS_useDWNSLP = /* apply DOWN-SLOPE Flow */
(PID.TID 0000.0001)                   F
(PID.TID 0000.0001)     ;
(PID.TID 0000.0001) PTRACERS_useKPP = /* apply KPP scheme */
(PID.TID 0000.0001)                   T
(PID.TID 0000.0001)     ;
(PID.TID 0000.0001) PTRACERS_ref = /* Reference vertical profile */
(PID.TID 0000.0001)    23 @  0.000000000000000E+00              /* K =  1: 23 */
(PID.TID 0000.0001)     ;
(PID.TID 0000.0001) PTRACERS_EvPrRn =/* tracer conc. in Evap. & Rain */
(PID.TID 0000.0001)                 1.234567000000000E+05
(PID.TID 0000.0001)     ;
(PID.TID 0000.0001)  -----------------------------------
(PID.TID 0000.0001)  tracer number :   73
(PID.TID 0000.0001) PTRACERS_names = /* Tracer short name */
(PID.TID 0000.0001)               'n16'
(PID.TID 0000.0001)     ;
(PID.TID 0000.0001) PTRACERS_long_names = /* Tracer long name */
(PID.TID 0000.0001)               ''
(PID.TID 0000.0001)     ;
(PID.TID 0000.0001) PTRACERS_ioLabel = /* tracer IO Label */
(PID.TID 0000.0001)               '73'
(PID.TID 0000.0001)     ;
(PID.TID 0000.0001) PTRACERS_advScheme = /* Advection Scheme */
(PID.TID 0000.0001)                      33
(PID.TID 0000.0001)     ;
(PID.TID 0000.0001) PTRACERS_SOM_Advection = /* tracer uses SOM advection scheme */
(PID.TID 0000.0001)                   F
(PID.TID 0000.0001)     ;
(PID.TID 0000.0001) PTRACERS_ImplVertAdv = /* implicit vert. advection flag */
(PID.TID 0000.0001)                   F
(PID.TID 0000.0001)     ;
(PID.TID 0000.0001) PTRACERS_diffKh = /* Laplacian Diffusivity */
(PID.TID 0000.0001)                 0.000000000000000E+00
(PID.TID 0000.0001)     ;
(PID.TID 0000.0001) PTRACERS_diffK4 = /* Biharmonic Diffusivity */
(PID.TID 0000.0001)                 0.000000000000000E+00
(PID.TID 0000.0001)     ;
(PID.TID 0000.0001) PTRACERS_diffKrNr = /* Vertical Diffusivity */
(PID.TID 0000.0001)    23 @  1.000000000000000E-05              /* K =  1: 23 */
(PID.TID 0000.0001)     ;
(PID.TID 0000.0001) PTRACERS_useGMRedi = /* apply GM-Redi */
(PID.TID 0000.0001)                   T
(PID.TID 0000.0001)     ;
(PID.TID 0000.0001) PTRACERS_useDWNSLP = /* apply DOWN-SLOPE Flow */
(PID.TID 0000.0001)                   F
(PID.TID 0000.0001)     ;
(PID.TID 0000.0001) PTRACERS_useKPP = /* apply KPP scheme */
(PID.TID 0000.0001)                   T
(PID.TID 0000.0001)     ;
(PID.TID 0000.0001) PTRACERS_ref = /* Reference vertical profile */
(PID.TID 0000.0001)    23 @  0.000000000000000E+00              /* K =  1: 23 */
(PID.TID 0000.0001)     ;
(PID.TID 0000.0001) PTRACERS_EvPrRn =/* tracer conc. in Evap. & Rain */
(PID.TID 0000.0001)                 1.234567000000000E+05
(PID.TID 0000.0001)     ;
(PID.TID 0000.0001)  -----------------------------------
(PID.TID 0000.0001)  tracer number :   74
(PID.TID 0000.0001) PTRACERS_names = /* Tracer short name */
(PID.TID 0000.0001)               'n17'
(PID.TID 0000.0001)     ;
(PID.TID 0000.0001) PTRACERS_long_names = /* Tracer long name */
(PID.TID 0000.0001)               ''
(PID.TID 0000.0001)     ;
(PID.TID 0000.0001) PTRACERS_ioLabel = /* tracer IO Label */
(PID.TID 0000.0001)               '74'
(PID.TID 0000.0001)     ;
(PID.TID 0000.0001) PTRACERS_advScheme = /* Advection Scheme */
(PID.TID 0000.0001)                      33
(PID.TID 0000.0001)     ;
(PID.TID 0000.0001) PTRACERS_SOM_Advection = /* tracer uses SOM advection scheme */
(PID.TID 0000.0001)                   F
(PID.TID 0000.0001)     ;
(PID.TID 0000.0001) PTRACERS_ImplVertAdv = /* implicit vert. advection flag */
(PID.TID 0000.0001)                   F
(PID.TID 0000.0001)     ;
(PID.TID 0000.0001) PTRACERS_diffKh = /* Laplacian Diffusivity */
(PID.TID 0000.0001)                 0.000000000000000E+00
(PID.TID 0000.0001)     ;
(PID.TID 0000.0001) PTRACERS_diffK4 = /* Biharmonic Diffusivity */
(PID.TID 0000.0001)                 0.000000000000000E+00
(PID.TID 0000.0001)     ;
(PID.TID 0000.0001) PTRACERS_diffKrNr = /* Vertical Diffusivity */
(PID.TID 0000.0001)    23 @  1.000000000000000E-05              /* K =  1: 23 */
(PID.TID 0000.0001)     ;
(PID.TID 0000.0001) PTRACERS_useGMRedi = /* apply GM-Redi */
(PID.TID 0000.0001)                   T
(PID.TID 0000.0001)     ;
(PID.TID 0000.0001) PTRACERS_useDWNSLP = /* apply DOWN-SLOPE Flow */
(PID.TID 0000.0001)                   F
(PID.TID 0000.0001)     ;
(PID.TID 0000.0001) PTRACERS_useKPP = /* apply KPP scheme */
(PID.TID 0000.0001)                   T
(PID.TID 0000.0001)     ;
(PID.TID 0000.0001) PTRACERS_ref = /* Reference vertical profile */
(PID.TID 0000.0001)    23 @  0.000000000000000E+00              /* K =  1: 23 */
(PID.TID 0000.0001)     ;
(PID.TID 0000.0001) PTRACERS_EvPrRn =/* tracer conc. in Evap. & Rain */
(PID.TID 0000.0001)                 1.234567000000000E+05
(PID.TID 0000.0001)     ;
(PID.TID 0000.0001)  -----------------------------------
(PID.TID 0000.0001)  tracer number :   75
(PID.TID 0000.0001) PTRACERS_names = /* Tracer short name */
(PID.TID 0000.0001)               'n18'
(PID.TID 0000.0001)     ;
(PID.TID 0000.0001) PTRACERS_long_names = /* Tracer long name */
(PID.TID 0000.0001)               ''
(PID.TID 0000.0001)     ;
(PID.TID 0000.0001) PTRACERS_ioLabel = /* tracer IO Label */
(PID.TID 0000.0001)               '75'
(PID.TID 0000.0001)     ;
(PID.TID 0000.0001) PTRACERS_advScheme = /* Advection Scheme */
(PID.TID 0000.0001)                      33
(PID.TID 0000.0001)     ;
(PID.TID 0000.0001) PTRACERS_SOM_Advection = /* tracer uses SOM advection scheme */
(PID.TID 0000.0001)                   F
(PID.TID 0000.0001)     ;
(PID.TID 0000.0001) PTRACERS_ImplVertAdv = /* implicit vert. advection flag */
(PID.TID 0000.0001)                   F
(PID.TID 0000.0001)     ;
(PID.TID 0000.0001) PTRACERS_diffKh = /* Laplacian Diffusivity */
(PID.TID 0000.0001)                 0.000000000000000E+00
(PID.TID 0000.0001)     ;
(PID.TID 0000.0001) PTRACERS_diffK4 = /* Biharmonic Diffusivity */
(PID.TID 0000.0001)                 0.000000000000000E+00
(PID.TID 0000.0001)     ;
(PID.TID 0000.0001) PTRACERS_diffKrNr = /* Vertical Diffusivity */
(PID.TID 0000.0001)    23 @  1.000000000000000E-05              /* K =  1: 23 */
(PID.TID 0000.0001)     ;
(PID.TID 0000.0001) PTRACERS_useGMRedi = /* apply GM-Redi */
(PID.TID 0000.0001)                   T
(PID.TID 0000.0001)     ;
(PID.TID 0000.0001) PTRACERS_useDWNSLP = /* apply DOWN-SLOPE Flow */
(PID.TID 0000.0001)                   F
(PID.TID 0000.0001)     ;
(PID.TID 0000.0001) PTRACERS_useKPP = /* apply KPP scheme */
(PID.TID 0000.0001)                   T
(PID.TID 0000.0001)     ;
(PID.TID 0000.0001) PTRACERS_ref = /* Reference vertical profile */
(PID.TID 0000.0001)    23 @  0.000000000000000E+00              /* K =  1: 23 */
(PID.TID 0000.0001)     ;
(PID.TID 0000.0001) PTRACERS_EvPrRn =/* tracer conc. in Evap. & Rain */
(PID.TID 0000.0001)                 1.234567000000000E+05
(PID.TID 0000.0001)     ;
(PID.TID 0000.0001)  -----------------------------------
(PID.TID 0000.0001)  tracer number :   76
(PID.TID 0000.0001) PTRACERS_names = /* Tracer short name */
(PID.TID 0000.0001)               'n19'
(PID.TID 0000.0001)     ;
(PID.TID 0000.0001) PTRACERS_long_names = /* Tracer long name */
(PID.TID 0000.0001)               ''
(PID.TID 0000.0001)     ;
(PID.TID 0000.0001) PTRACERS_ioLabel = /* tracer IO Label */
(PID.TID 0000.0001)               '76'
(PID.TID 0000.0001)     ;
(PID.TID 0000.0001) PTRACERS_advScheme = /* Advection Scheme */
(PID.TID 0000.0001)                      33
(PID.TID 0000.0001)     ;
(PID.TID 0000.0001) PTRACERS_SOM_Advection = /* tracer uses SOM advection scheme */
(PID.TID 0000.0001)                   F
(PID.TID 0000.0001)     ;
(PID.TID 0000.0001) PTRACERS_ImplVertAdv = /* implicit vert. advection flag */
(PID.TID 0000.0001)                   F
(PID.TID 0000.0001)     ;
(PID.TID 0000.0001) PTRACERS_diffKh = /* Laplacian Diffusivity */
(PID.TID 0000.0001)                 0.000000000000000E+00
(PID.TID 0000.0001)     ;
(PID.TID 0000.0001) PTRACERS_diffK4 = /* Biharmonic Diffusivity */
(PID.TID 0000.0001)                 0.000000000000000E+00
(PID.TID 0000.0001)     ;
(PID.TID 0000.0001) PTRACERS_diffKrNr = /* Vertical Diffusivity */
(PID.TID 0000.0001)    23 @  1.000000000000000E-05              /* K =  1: 23 */
(PID.TID 0000.0001)     ;
(PID.TID 0000.0001) PTRACERS_useGMRedi = /* apply GM-Redi */
(PID.TID 0000.0001)                   T
(PID.TID 0000.0001)     ;
(PID.TID 0000.0001) PTRACERS_useDWNSLP = /* apply DOWN-SLOPE Flow */
(PID.TID 0000.0001)                   F
(PID.TID 0000.0001)     ;
(PID.TID 0000.0001) PTRACERS_useKPP = /* apply KPP scheme */
(PID.TID 0000.0001)                   T
(PID.TID 0000.0001)     ;
(PID.TID 0000.0001) PTRACERS_ref = /* Reference vertical profile */
(PID.TID 0000.0001)    23 @  0.000000000000000E+00              /* K =  1: 23 */
(PID.TID 0000.0001)     ;
(PID.TID 0000.0001) PTRACERS_EvPrRn =/* tracer conc. in Evap. & Rain */
(PID.TID 0000.0001)                 1.234567000000000E+05
(PID.TID 0000.0001)     ;
(PID.TID 0000.0001)  -----------------------------------
(PID.TID 0000.0001)  tracer number :   77
(PID.TID 0000.0001) PTRACERS_names = /* Tracer short name */
(PID.TID 0000.0001)               'n20'
(PID.TID 0000.0001)     ;
(PID.TID 0000.0001) PTRACERS_long_names = /* Tracer long name */
(PID.TID 0000.0001)               ''
(PID.TID 0000.0001)     ;
(PID.TID 0000.0001) PTRACERS_ioLabel = /* tracer IO Label */
(PID.TID 0000.0001)               '77'
(PID.TID 0000.0001)     ;
(PID.TID 0000.0001) PTRACERS_advScheme = /* Advection Scheme */
(PID.TID 0000.0001)                      33
(PID.TID 0000.0001)     ;
(PID.TID 0000.0001) PTRACERS_SOM_Advection = /* tracer uses SOM advection scheme */
(PID.TID 0000.0001)                   F
(PID.TID 0000.0001)     ;
(PID.TID 0000.0001) PTRACERS_ImplVertAdv = /* implicit vert. advection flag */
(PID.TID 0000.0001)                   F
(PID.TID 0000.0001)     ;
(PID.TID 0000.0001) PTRACERS_diffKh = /* Laplacian Diffusivity */
(PID.TID 0000.0001)                 0.000000000000000E+00
(PID.TID 0000.0001)     ;
(PID.TID 0000.0001) PTRACERS_diffK4 = /* Biharmonic Diffusivity */
(PID.TID 0000.0001)                 0.000000000000000E+00
(PID.TID 0000.0001)     ;
(PID.TID 0000.0001) PTRACERS_diffKrNr = /* Vertical Diffusivity */
(PID.TID 0000.0001)    23 @  1.000000000000000E-05              /* K =  1: 23 */
(PID.TID 0000.0001)     ;
(PID.TID 0000.0001) PTRACERS_useGMRedi = /* apply GM-Redi */
(PID.TID 0000.0001)                   T
(PID.TID 0000.0001)     ;
(PID.TID 0000.0001) PTRACERS_useDWNSLP = /* apply DOWN-SLOPE Flow */
(PID.TID 0000.0001)                   F
(PID.TID 0000.0001)     ;
(PID.TID 0000.0001) PTRACERS_useKPP = /* apply KPP scheme */
(PID.TID 0000.0001)                   T
(PID.TID 0000.0001)     ;
(PID.TID 0000.0001) PTRACERS_ref = /* Reference vertical profile */
(PID.TID 0000.0001)    23 @  0.000000000000000E+00              /* K =  1: 23 */
(PID.TID 0000.0001)     ;
(PID.TID 0000.0001) PTRACERS_EvPrRn =/* tracer conc. in Evap. & Rain */
(PID.TID 0000.0001)                 1.234567000000000E+05
(PID.TID 0000.0001)     ;
(PID.TID 0000.0001)  -----------------------------------
(PID.TID 0000.0001)  tracer number :   78
(PID.TID 0000.0001) PTRACERS_names = /* Tracer short name */
(PID.TID 0000.0001)               'n21'
(PID.TID 0000.0001)     ;
(PID.TID 0000.0001) PTRACERS_long_names = /* Tracer long name */
(PID.TID 0000.0001)               ''
(PID.TID 0000.0001)     ;
(PID.TID 0000.0001) PTRACERS_ioLabel = /* tracer IO Label */
(PID.TID 0000.0001)               '78'
(PID.TID 0000.0001)     ;
(PID.TID 0000.0001) PTRACERS_advScheme = /* Advection Scheme */
(PID.TID 0000.0001)                      33
(PID.TID 0000.0001)     ;
(PID.TID 0000.0001) PTRACERS_SOM_Advection = /* tracer uses SOM advection scheme */
(PID.TID 0000.0001)                   F
(PID.TID 0000.0001)     ;
(PID.TID 0000.0001) PTRACERS_ImplVertAdv = /* implicit vert. advection flag */
(PID.TID 0000.0001)                   F
(PID.TID 0000.0001)     ;
(PID.TID 0000.0001) PTRACERS_diffKh = /* Laplacian Diffusivity */
(PID.TID 0000.0001)                 0.000000000000000E+00
(PID.TID 0000.0001)     ;
(PID.TID 0000.0001) PTRACERS_diffK4 = /* Biharmonic Diffusivity */
(PID.TID 0000.0001)                 0.000000000000000E+00
(PID.TID 0000.0001)     ;
(PID.TID 0000.0001) PTRACERS_diffKrNr = /* Vertical Diffusivity */
(PID.TID 0000.0001)    23 @  1.000000000000000E-05              /* K =  1: 23 */
(PID.TID 0000.0001)     ;
(PID.TID 0000.0001) PTRACERS_useGMRedi = /* apply GM-Redi */
(PID.TID 0000.0001)                   T
(PID.TID 0000.0001)     ;
(PID.TID 0000.0001) PTRACERS_useDWNSLP = /* apply DOWN-SLOPE Flow */
(PID.TID 0000.0001)                   F
(PID.TID 0000.0001)     ;
(PID.TID 0000.0001) PTRACERS_useKPP = /* apply KPP scheme */
(PID.TID 0000.0001)                   T
(PID.TID 0000.0001)     ;
(PID.TID 0000.0001) PTRACERS_ref = /* Reference vertical profile */
(PID.TID 0000.0001)    23 @  0.000000000000000E+00              /* K =  1: 23 */
(PID.TID 0000.0001)     ;
(PID.TID 0000.0001) PTRACERS_EvPrRn =/* tracer conc. in Evap. & Rain */
(PID.TID 0000.0001)                 1.234567000000000E+05
(PID.TID 0000.0001)     ;
(PID.TID 0000.0001)  -----------------------------------
(PID.TID 0000.0001)  tracer number :   79
(PID.TID 0000.0001) PTRACERS_names = /* Tracer short name */
(PID.TID 0000.0001)               'n22'
(PID.TID 0000.0001)     ;
(PID.TID 0000.0001) PTRACERS_long_names = /* Tracer long name */
(PID.TID 0000.0001)               ''
(PID.TID 0000.0001)     ;
(PID.TID 0000.0001) PTRACERS_ioLabel = /* tracer IO Label */
(PID.TID 0000.0001)               '79'
(PID.TID 0000.0001)     ;
(PID.TID 0000.0001) PTRACERS_advScheme = /* Advection Scheme */
(PID.TID 0000.0001)                      33
(PID.TID 0000.0001)     ;
(PID.TID 0000.0001) PTRACERS_SOM_Advection = /* tracer uses SOM advection scheme */
(PID.TID 0000.0001)                   F
(PID.TID 0000.0001)     ;
(PID.TID 0000.0001) PTRACERS_ImplVertAdv = /* implicit vert. advection flag */
(PID.TID 0000.0001)                   F
(PID.TID 0000.0001)     ;
(PID.TID 0000.0001) PTRACERS_diffKh = /* Laplacian Diffusivity */
(PID.TID 0000.0001)                 0.000000000000000E+00
(PID.TID 0000.0001)     ;
(PID.TID 0000.0001) PTRACERS_diffK4 = /* Biharmonic Diffusivity */
(PID.TID 0000.0001)                 0.000000000000000E+00
(PID.TID 0000.0001)     ;
(PID.TID 0000.0001) PTRACERS_diffKrNr = /* Vertical Diffusivity */
(PID.TID 0000.0001)    23 @  1.000000000000000E-05              /* K =  1: 23 */
(PID.TID 0000.0001)     ;
(PID.TID 0000.0001) PTRACERS_useGMRedi = /* apply GM-Redi */
(PID.TID 0000.0001)                   T
(PID.TID 0000.0001)     ;
(PID.TID 0000.0001) PTRACERS_useDWNSLP = /* apply DOWN-SLOPE Flow */
(PID.TID 0000.0001)                   F
(PID.TID 0000.0001)     ;
(PID.TID 0000.0001) PTRACERS_useKPP = /* apply KPP scheme */
(PID.TID 0000.0001)                   T
(PID.TID 0000.0001)     ;
(PID.TID 0000.0001) PTRACERS_ref = /* Reference vertical profile */
(PID.TID 0000.0001)    23 @  0.000000000000000E+00              /* K =  1: 23 */
(PID.TID 0000.0001)     ;
(PID.TID 0000.0001) PTRACERS_EvPrRn =/* tracer conc. in Evap. & Rain */
(PID.TID 0000.0001)                 1.234567000000000E+05
(PID.TID 0000.0001)     ;
(PID.TID 0000.0001)  -----------------------------------
(PID.TID 0000.0001)  tracer number :   80
(PID.TID 0000.0001) PTRACERS_names = /* Tracer short name */
(PID.TID 0000.0001)               'n23'
(PID.TID 0000.0001)     ;
(PID.TID 0000.0001) PTRACERS_long_names = /* Tracer long name */
(PID.TID 0000.0001)               ''
(PID.TID 0000.0001)     ;
(PID.TID 0000.0001) PTRACERS_ioLabel = /* tracer IO Label */
(PID.TID 0000.0001)               '80'
(PID.TID 0000.0001)     ;
(PID.TID 0000.0001) PTRACERS_advScheme = /* Advection Scheme */
(PID.TID 0000.0001)                      33
(PID.TID 0000.0001)     ;
(PID.TID 0000.0001) PTRACERS_SOM_Advection = /* tracer uses SOM advection scheme */
(PID.TID 0000.0001)                   F
(PID.TID 0000.0001)     ;
(PID.TID 0000.0001) PTRACERS_ImplVertAdv = /* implicit vert. advection flag */
(PID.TID 0000.0001)                   F
(PID.TID 0000.0001)     ;
(PID.TID 0000.0001) PTRACERS_diffKh = /* Laplacian Diffusivity */
(PID.TID 0000.0001)                 0.000000000000000E+00
(PID.TID 0000.0001)     ;
(PID.TID 0000.0001) PTRACERS_diffK4 = /* Biharmonic Diffusivity */
(PID.TID 0000.0001)                 0.000000000000000E+00
(PID.TID 0000.0001)     ;
(PID.TID 0000.0001) PTRACERS_diffKrNr = /* Vertical Diffusivity */
(PID.TID 0000.0001)    23 @  1.000000000000000E-05              /* K =  1: 23 */
(PID.TID 0000.0001)     ;
(PID.TID 0000.0001) PTRACERS_useGMRedi = /* apply GM-Redi */
(PID.TID 0000.0001)                   T
(PID.TID 0000.0001)     ;
(PID.TID 0000.0001) PTRACERS_useDWNSLP = /* apply DOWN-SLOPE Flow */
(PID.TID 0000.0001)                   F
(PID.TID 0000.0001)     ;
(PID.TID 0000.0001) PTRACERS_useKPP = /* apply KPP scheme */
(PID.TID 0000.0001)                   T
(PID.TID 0000.0001)     ;
(PID.TID 0000.0001) PTRACERS_ref = /* Reference vertical profile */
(PID.TID 0000.0001)    23 @  0.000000000000000E+00              /* K =  1: 23 */
(PID.TID 0000.0001)     ;
(PID.TID 0000.0001) PTRACERS_EvPrRn =/* tracer conc. in Evap. & Rain */
(PID.TID 0000.0001)                 1.234567000000000E+05
(PID.TID 0000.0001)     ;
(PID.TID 0000.0001)  -----------------------------------
(PID.TID 0000.0001)  tracer number :   81
(PID.TID 0000.0001) PTRACERS_names = /* Tracer short name */
(PID.TID 0000.0001)               'n24'
(PID.TID 0000.0001)     ;
(PID.TID 0000.0001) PTRACERS_long_names = /* Tracer long name */
(PID.TID 0000.0001)               ''
(PID.TID 0000.0001)     ;
(PID.TID 0000.0001) PTRACERS_ioLabel = /* tracer IO Label */
(PID.TID 0000.0001)               '81'
(PID.TID 0000.0001)     ;
(PID.TID 0000.0001) PTRACERS_advScheme = /* Advection Scheme */
(PID.TID 0000.0001)                      33
(PID.TID 0000.0001)     ;
(PID.TID 0000.0001) PTRACERS_SOM_Advection = /* tracer uses SOM advection scheme */
(PID.TID 0000.0001)                   F
(PID.TID 0000.0001)     ;
(PID.TID 0000.0001) PTRACERS_ImplVertAdv = /* implicit vert. advection flag */
(PID.TID 0000.0001)                   F
(PID.TID 0000.0001)     ;
(PID.TID 0000.0001) PTRACERS_diffKh = /* Laplacian Diffusivity */
(PID.TID 0000.0001)                 0.000000000000000E+00
(PID.TID 0000.0001)     ;
(PID.TID 0000.0001) PTRACERS_diffK4 = /* Biharmonic Diffusivity */
(PID.TID 0000.0001)                 0.000000000000000E+00
(PID.TID 0000.0001)     ;
(PID.TID 0000.0001) PTRACERS_diffKrNr = /* Vertical Diffusivity */
(PID.TID 0000.0001)    23 @  1.000000000000000E-05              /* K =  1: 23 */
(PID.TID 0000.0001)     ;
(PID.TID 0000.0001) PTRACERS_useGMRedi = /* apply GM-Redi */
(PID.TID 0000.0001)                   T
(PID.TID 0000.0001)     ;
(PID.TID 0000.0001) PTRACERS_useDWNSLP = /* apply DOWN-SLOPE Flow */
(PID.TID 0000.0001)                   F
(PID.TID 0000.0001)     ;
(PID.TID 0000.0001) PTRACERS_useKPP = /* apply KPP scheme */
(PID.TID 0000.0001)                   T
(PID.TID 0000.0001)     ;
(PID.TID 0000.0001) PTRACERS_ref = /* Reference vertical profile */
(PID.TID 0000.0001)    23 @  0.000000000000000E+00              /* K =  1: 23 */
(PID.TID 0000.0001)     ;
(PID.TID 0000.0001) PTRACERS_EvPrRn =/* tracer conc. in Evap. & Rain */
(PID.TID 0000.0001)                 1.234567000000000E+05
(PID.TID 0000.0001)     ;
(PID.TID 0000.0001)  -----------------------------------
(PID.TID 0000.0001)  tracer number :   82
(PID.TID 0000.0001) PTRACERS_names = /* Tracer short name */
(PID.TID 0000.0001)               'n25'
(PID.TID 0000.0001)     ;
(PID.TID 0000.0001) PTRACERS_long_names = /* Tracer long name */
(PID.TID 0000.0001)               ''
(PID.TID 0000.0001)     ;
(PID.TID 0000.0001) PTRACERS_ioLabel = /* tracer IO Label */
(PID.TID 0000.0001)               '82'
(PID.TID 0000.0001)     ;
(PID.TID 0000.0001) PTRACERS_advScheme = /* Advection Scheme */
(PID.TID 0000.0001)                      33
(PID.TID 0000.0001)     ;
(PID.TID 0000.0001) PTRACERS_SOM_Advection = /* tracer uses SOM advection scheme */
(PID.TID 0000.0001)                   F
(PID.TID 0000.0001)     ;
(PID.TID 0000.0001) PTRACERS_ImplVertAdv = /* implicit vert. advection flag */
(PID.TID 0000.0001)                   F
(PID.TID 0000.0001)     ;
(PID.TID 0000.0001) PTRACERS_diffKh = /* Laplacian Diffusivity */
(PID.TID 0000.0001)                 0.000000000000000E+00
(PID.TID 0000.0001)     ;
(PID.TID 0000.0001) PTRACERS_diffK4 = /* Biharmonic Diffusivity */
(PID.TID 0000.0001)                 0.000000000000000E+00
(PID.TID 0000.0001)     ;
(PID.TID 0000.0001) PTRACERS_diffKrNr = /* Vertical Diffusivity */
(PID.TID 0000.0001)    23 @  1.000000000000000E-05              /* K =  1: 23 */
(PID.TID 0000.0001)     ;
(PID.TID 0000.0001) PTRACERS_useGMRedi = /* apply GM-Redi */
(PID.TID 0000.0001)                   T
(PID.TID 0000.0001)     ;
(PID.TID 0000.0001) PTRACERS_useDWNSLP = /* apply DOWN-SLOPE Flow */
(PID.TID 0000.0001)                   F
(PID.TID 0000.0001)     ;
(PID.TID 0000.0001) PTRACERS_useKPP = /* apply KPP scheme */
(PID.TID 0000.0001)                   T
(PID.TID 0000.0001)     ;
(PID.TID 0000.0001) PTRACERS_ref = /* Reference vertical profile */
(PID.TID 0000.0001)    23 @  0.000000000000000E+00              /* K =  1: 23 */
(PID.TID 0000.0001)     ;
(PID.TID 0000.0001) PTRACERS_EvPrRn =/* tracer conc. in Evap. & Rain */
(PID.TID 0000.0001)                 1.234567000000000E+05
(PID.TID 0000.0001)     ;
(PID.TID 0000.0001)  -----------------------------------
(PID.TID 0000.0001)  tracer number :   83
(PID.TID 0000.0001) PTRACERS_names = /* Tracer short name */
(PID.TID 0000.0001)               'n26'
(PID.TID 0000.0001)     ;
(PID.TID 0000.0001) PTRACERS_long_names = /* Tracer long name */
(PID.TID 0000.0001)               ''
(PID.TID 0000.0001)     ;
(PID.TID 0000.0001) PTRACERS_ioLabel = /* tracer IO Label */
(PID.TID 0000.0001)               '83'
(PID.TID 0000.0001)     ;
(PID.TID 0000.0001) PTRACERS_advScheme = /* Advection Scheme */
(PID.TID 0000.0001)                      33
(PID.TID 0000.0001)     ;
(PID.TID 0000.0001) PTRACERS_SOM_Advection = /* tracer uses SOM advection scheme */
(PID.TID 0000.0001)                   F
(PID.TID 0000.0001)     ;
(PID.TID 0000.0001) PTRACERS_ImplVertAdv = /* implicit vert. advection flag */
(PID.TID 0000.0001)                   F
(PID.TID 0000.0001)     ;
(PID.TID 0000.0001) PTRACERS_diffKh = /* Laplacian Diffusivity */
(PID.TID 0000.0001)                 0.000000000000000E+00
(PID.TID 0000.0001)     ;
(PID.TID 0000.0001) PTRACERS_diffK4 = /* Biharmonic Diffusivity */
(PID.TID 0000.0001)                 0.000000000000000E+00
(PID.TID 0000.0001)     ;
(PID.TID 0000.0001) PTRACERS_diffKrNr = /* Vertical Diffusivity */
(PID.TID 0000.0001)    23 @  1.000000000000000E-05              /* K =  1: 23 */
(PID.TID 0000.0001)     ;
(PID.TID 0000.0001) PTRACERS_useGMRedi = /* apply GM-Redi */
(PID.TID 0000.0001)                   T
(PID.TID 0000.0001)     ;
(PID.TID 0000.0001) PTRACERS_useDWNSLP = /* apply DOWN-SLOPE Flow */
(PID.TID 0000.0001)                   F
(PID.TID 0000.0001)     ;
(PID.TID 0000.0001) PTRACERS_useKPP = /* apply KPP scheme */
(PID.TID 0000.0001)                   T
(PID.TID 0000.0001)     ;
(PID.TID 0000.0001) PTRACERS_ref = /* Reference vertical profile */
(PID.TID 0000.0001)    23 @  0.000000000000000E+00              /* K =  1: 23 */
(PID.TID 0000.0001)     ;
(PID.TID 0000.0001) PTRACERS_EvPrRn =/* tracer conc. in Evap. & Rain */
(PID.TID 0000.0001)                 1.234567000000000E+05
(PID.TID 0000.0001)     ;
(PID.TID 0000.0001)  -----------------------------------
(PID.TID 0000.0001)  tracer number :   84
(PID.TID 0000.0001) PTRACERS_names = /* Tracer short name */
(PID.TID 0000.0001)               'n27'
(PID.TID 0000.0001)     ;
(PID.TID 0000.0001) PTRACERS_long_names = /* Tracer long name */
(PID.TID 0000.0001)               ''
(PID.TID 0000.0001)     ;
(PID.TID 0000.0001) PTRACERS_ioLabel = /* tracer IO Label */
(PID.TID 0000.0001)               '84'
(PID.TID 0000.0001)     ;
(PID.TID 0000.0001) PTRACERS_advScheme = /* Advection Scheme */
(PID.TID 0000.0001)                      33
(PID.TID 0000.0001)     ;
(PID.TID 0000.0001) PTRACERS_SOM_Advection = /* tracer uses SOM advection scheme */
(PID.TID 0000.0001)                   F
(PID.TID 0000.0001)     ;
(PID.TID 0000.0001) PTRACERS_ImplVertAdv = /* implicit vert. advection flag */
(PID.TID 0000.0001)                   F
(PID.TID 0000.0001)     ;
(PID.TID 0000.0001) PTRACERS_diffKh = /* Laplacian Diffusivity */
(PID.TID 0000.0001)                 0.000000000000000E+00
(PID.TID 0000.0001)     ;
(PID.TID 0000.0001) PTRACERS_diffK4 = /* Biharmonic Diffusivity */
(PID.TID 0000.0001)                 0.000000000000000E+00
(PID.TID 0000.0001)     ;
(PID.TID 0000.0001) PTRACERS_diffKrNr = /* Vertical Diffusivity */
(PID.TID 0000.0001)    23 @  1.000000000000000E-05              /* K =  1: 23 */
(PID.TID 0000.0001)     ;
(PID.TID 0000.0001) PTRACERS_useGMRedi = /* apply GM-Redi */
(PID.TID 0000.0001)                   T
(PID.TID 0000.0001)     ;
(PID.TID 0000.0001) PTRACERS_useDWNSLP = /* apply DOWN-SLOPE Flow */
(PID.TID 0000.0001)                   F
(PID.TID 0000.0001)     ;
(PID.TID 0000.0001) PTRACERS_useKPP = /* apply KPP scheme */
(PID.TID 0000.0001)                   T
(PID.TID 0000.0001)     ;
(PID.TID 0000.0001) PTRACERS_ref = /* Reference vertical profile */
(PID.TID 0000.0001)    23 @  0.000000000000000E+00              /* K =  1: 23 */
(PID.TID 0000.0001)     ;
(PID.TID 0000.0001) PTRACERS_EvPrRn =/* tracer conc. in Evap. & Rain */
(PID.TID 0000.0001)                 1.234567000000000E+05
(PID.TID 0000.0001)     ;
(PID.TID 0000.0001)  -----------------------------------
(PID.TID 0000.0001)  tracer number :   85
(PID.TID 0000.0001) PTRACERS_names = /* Tracer short name */
(PID.TID 0000.0001)               'n28'
(PID.TID 0000.0001)     ;
(PID.TID 0000.0001) PTRACERS_long_names = /* Tracer long name */
(PID.TID 0000.0001)               ''
(PID.TID 0000.0001)     ;
(PID.TID 0000.0001) PTRACERS_ioLabel = /* tracer IO Label */
(PID.TID 0000.0001)               '85'
(PID.TID 0000.0001)     ;
(PID.TID 0000.0001) PTRACERS_advScheme = /* Advection Scheme */
(PID.TID 0000.0001)                      33
(PID.TID 0000.0001)     ;
(PID.TID 0000.0001) PTRACERS_SOM_Advection = /* tracer uses SOM advection scheme */
(PID.TID 0000.0001)                   F
(PID.TID 0000.0001)     ;
(PID.TID 0000.0001) PTRACERS_ImplVertAdv = /* implicit vert. advection flag */
(PID.TID 0000.0001)                   F
(PID.TID 0000.0001)     ;
(PID.TID 0000.0001) PTRACERS_diffKh = /* Laplacian Diffusivity */
(PID.TID 0000.0001)                 0.000000000000000E+00
(PID.TID 0000.0001)     ;
(PID.TID 0000.0001) PTRACERS_diffK4 = /* Biharmonic Diffusivity */
(PID.TID 0000.0001)                 0.000000000000000E+00
(PID.TID 0000.0001)     ;
(PID.TID 0000.0001) PTRACERS_diffKrNr = /* Vertical Diffusivity */
(PID.TID 0000.0001)    23 @  1.000000000000000E-05              /* K =  1: 23 */
(PID.TID 0000.0001)     ;
(PID.TID 0000.0001) PTRACERS_useGMRedi = /* apply GM-Redi */
(PID.TID 0000.0001)                   T
(PID.TID 0000.0001)     ;
(PID.TID 0000.0001) PTRACERS_useDWNSLP = /* apply DOWN-SLOPE Flow */
(PID.TID 0000.0001)                   F
(PID.TID 0000.0001)     ;
(PID.TID 0000.0001) PTRACERS_useKPP = /* apply KPP scheme */
(PID.TID 0000.0001)                   T
(PID.TID 0000.0001)     ;
(PID.TID 0000.0001) PTRACERS_ref = /* Reference vertical profile */
(PID.TID 0000.0001)    23 @  0.000000000000000E+00              /* K =  1: 23 */
(PID.TID 0000.0001)     ;
(PID.TID 0000.0001) PTRACERS_EvPrRn =/* tracer conc. in Evap. & Rain */
(PID.TID 0000.0001)                 1.234567000000000E+05
(PID.TID 0000.0001)     ;
(PID.TID 0000.0001)  -----------------------------------
(PID.TID 0000.0001)  tracer number :   86
(PID.TID 0000.0001) PTRACERS_names = /* Tracer short name */
(PID.TID 0000.0001)               'n29'
(PID.TID 0000.0001)     ;
(PID.TID 0000.0001) PTRACERS_long_names = /* Tracer long name */
(PID.TID 0000.0001)               ''
(PID.TID 0000.0001)     ;
(PID.TID 0000.0001) PTRACERS_ioLabel = /* tracer IO Label */
(PID.TID 0000.0001)               '86'
(PID.TID 0000.0001)     ;
(PID.TID 0000.0001) PTRACERS_advScheme = /* Advection Scheme */
(PID.TID 0000.0001)                      33
(PID.TID 0000.0001)     ;
(PID.TID 0000.0001) PTRACERS_SOM_Advection = /* tracer uses SOM advection scheme */
(PID.TID 0000.0001)                   F
(PID.TID 0000.0001)     ;
(PID.TID 0000.0001) PTRACERS_ImplVertAdv = /* implicit vert. advection flag */
(PID.TID 0000.0001)                   F
(PID.TID 0000.0001)     ;
(PID.TID 0000.0001) PTRACERS_diffKh = /* Laplacian Diffusivity */
(PID.TID 0000.0001)                 0.000000000000000E+00
(PID.TID 0000.0001)     ;
(PID.TID 0000.0001) PTRACERS_diffK4 = /* Biharmonic Diffusivity */
(PID.TID 0000.0001)                 0.000000000000000E+00
(PID.TID 0000.0001)     ;
(PID.TID 0000.0001) PTRACERS_diffKrNr = /* Vertical Diffusivity */
(PID.TID 0000.0001)    23 @  1.000000000000000E-05              /* K =  1: 23 */
(PID.TID 0000.0001)     ;
(PID.TID 0000.0001) PTRACERS_useGMRedi = /* apply GM-Redi */
(PID.TID 0000.0001)                   T
(PID.TID 0000.0001)     ;
(PID.TID 0000.0001) PTRACERS_useDWNSLP = /* apply DOWN-SLOPE Flow */
(PID.TID 0000.0001)                   F
(PID.TID 0000.0001)     ;
(PID.TID 0000.0001) PTRACERS_useKPP = /* apply KPP scheme */
(PID.TID 0000.0001)                   T
(PID.TID 0000.0001)     ;
(PID.TID 0000.0001) PTRACERS_ref = /* Reference vertical profile */
(PID.TID 0000.0001)    23 @  0.000000000000000E+00              /* K =  1: 23 */
(PID.TID 0000.0001)     ;
(PID.TID 0000.0001) PTRACERS_EvPrRn =/* tracer conc. in Evap. & Rain */
(PID.TID 0000.0001)                 1.234567000000000E+05
(PID.TID 0000.0001)     ;
(PID.TID 0000.0001)  -----------------------------------
(PID.TID 0000.0001)  tracer number :   87
(PID.TID 0000.0001) PTRACERS_names = /* Tracer short name */
(PID.TID 0000.0001)               'n30'
(PID.TID 0000.0001)     ;
(PID.TID 0000.0001) PTRACERS_long_names = /* Tracer long name */
(PID.TID 0000.0001)               ''
(PID.TID 0000.0001)     ;
(PID.TID 0000.0001) PTRACERS_ioLabel = /* tracer IO Label */
(PID.TID 0000.0001)               '87'
(PID.TID 0000.0001)     ;
(PID.TID 0000.0001) PTRACERS_advScheme = /* Advection Scheme */
(PID.TID 0000.0001)                      33
(PID.TID 0000.0001)     ;
(PID.TID 0000.0001) PTRACERS_SOM_Advection = /* tracer uses SOM advection scheme */
(PID.TID 0000.0001)                   F
(PID.TID 0000.0001)     ;
(PID.TID 0000.0001) PTRACERS_ImplVertAdv = /* implicit vert. advection flag */
(PID.TID 0000.0001)                   F
(PID.TID 0000.0001)     ;
(PID.TID 0000.0001) PTRACERS_diffKh = /* Laplacian Diffusivity */
(PID.TID 0000.0001)                 0.000000000000000E+00
(PID.TID 0000.0001)     ;
(PID.TID 0000.0001) PTRACERS_diffK4 = /* Biharmonic Diffusivity */
(PID.TID 0000.0001)                 0.000000000000000E+00
(PID.TID 0000.0001)     ;
(PID.TID 0000.0001) PTRACERS_diffKrNr = /* Vertical Diffusivity */
(PID.TID 0000.0001)    23 @  1.000000000000000E-05              /* K =  1: 23 */
(PID.TID 0000.0001)     ;
(PID.TID 0000.0001) PTRACERS_useGMRedi = /* apply GM-Redi */
(PID.TID 0000.0001)                   T
(PID.TID 0000.0001)     ;
(PID.TID 0000.0001) PTRACERS_useDWNSLP = /* apply DOWN-SLOPE Flow */
(PID.TID 0000.0001)                   F
(PID.TID 0000.0001)     ;
(PID.TID 0000.0001) PTRACERS_useKPP = /* apply KPP scheme */
(PID.TID 0000.0001)                   T
(PID.TID 0000.0001)     ;
(PID.TID 0000.0001) PTRACERS_ref = /* Reference vertical profile */
(PID.TID 0000.0001)    23 @  0.000000000000000E+00              /* K =  1: 23 */
(PID.TID 0000.0001)     ;
(PID.TID 0000.0001) PTRACERS_EvPrRn =/* tracer conc. in Evap. & Rain */
(PID.TID 0000.0001)                 1.234567000000000E+05
(PID.TID 0000.0001)     ;
(PID.TID 0000.0001)  -----------------------------------
(PID.TID 0000.0001)  tracer number :   88
(PID.TID 0000.0001) PTRACERS_names = /* Tracer short name */
(PID.TID 0000.0001)               'n31'
(PID.TID 0000.0001)     ;
(PID.TID 0000.0001) PTRACERS_long_names = /* Tracer long name */
(PID.TID 0000.0001)               ''
(PID.TID 0000.0001)     ;
(PID.TID 0000.0001) PTRACERS_ioLabel = /* tracer IO Label */
(PID.TID 0000.0001)               '88'
(PID.TID 0000.0001)     ;
(PID.TID 0000.0001) PTRACERS_advScheme = /* Advection Scheme */
(PID.TID 0000.0001)                      33
(PID.TID 0000.0001)     ;
(PID.TID 0000.0001) PTRACERS_SOM_Advection = /* tracer uses SOM advection scheme */
(PID.TID 0000.0001)                   F
(PID.TID 0000.0001)     ;
(PID.TID 0000.0001) PTRACERS_ImplVertAdv = /* implicit vert. advection flag */
(PID.TID 0000.0001)                   F
(PID.TID 0000.0001)     ;
(PID.TID 0000.0001) PTRACERS_diffKh = /* Laplacian Diffusivity */
(PID.TID 0000.0001)                 0.000000000000000E+00
(PID.TID 0000.0001)     ;
(PID.TID 0000.0001) PTRACERS_diffK4 = /* Biharmonic Diffusivity */
(PID.TID 0000.0001)                 0.000000000000000E+00
(PID.TID 0000.0001)     ;
(PID.TID 0000.0001) PTRACERS_diffKrNr = /* Vertical Diffusivity */
(PID.TID 0000.0001)    23 @  1.000000000000000E-05              /* K =  1: 23 */
(PID.TID 0000.0001)     ;
(PID.TID 0000.0001) PTRACERS_useGMRedi = /* apply GM-Redi */
(PID.TID 0000.0001)                   T
(PID.TID 0000.0001)     ;
(PID.TID 0000.0001) PTRACERS_useDWNSLP = /* apply DOWN-SLOPE Flow */
(PID.TID 0000.0001)                   F
(PID.TID 0000.0001)     ;
(PID.TID 0000.0001) PTRACERS_useKPP = /* apply KPP scheme */
(PID.TID 0000.0001)                   T
(PID.TID 0000.0001)     ;
(PID.TID 0000.0001) PTRACERS_ref = /* Reference vertical profile */
(PID.TID 0000.0001)    23 @  0.000000000000000E+00              /* K =  1: 23 */
(PID.TID 0000.0001)     ;
(PID.TID 0000.0001) PTRACERS_EvPrRn =/* tracer conc. in Evap. & Rain */
(PID.TID 0000.0001)                 1.234567000000000E+05
(PID.TID 0000.0001)     ;
(PID.TID 0000.0001)  -----------------------------------
(PID.TID 0000.0001)  tracer number :   89
(PID.TID 0000.0001) PTRACERS_names = /* Tracer short name */
(PID.TID 0000.0001)               'n32'
(PID.TID 0000.0001)     ;
(PID.TID 0000.0001) PTRACERS_long_names = /* Tracer long name */
(PID.TID 0000.0001)               ''
(PID.TID 0000.0001)     ;
(PID.TID 0000.0001) PTRACERS_ioLabel = /* tracer IO Label */
(PID.TID 0000.0001)               '89'
(PID.TID 0000.0001)     ;
(PID.TID 0000.0001) PTRACERS_advScheme = /* Advection Scheme */
(PID.TID 0000.0001)                      33
(PID.TID 0000.0001)     ;
(PID.TID 0000.0001) PTRACERS_SOM_Advection = /* tracer uses SOM advection scheme */
(PID.TID 0000.0001)                   F
(PID.TID 0000.0001)     ;
(PID.TID 0000.0001) PTRACERS_ImplVertAdv = /* implicit vert. advection flag */
(PID.TID 0000.0001)                   F
(PID.TID 0000.0001)     ;
(PID.TID 0000.0001) PTRACERS_diffKh = /* Laplacian Diffusivity */
(PID.TID 0000.0001)                 0.000000000000000E+00
(PID.TID 0000.0001)     ;
(PID.TID 0000.0001) PTRACERS_diffK4 = /* Biharmonic Diffusivity */
(PID.TID 0000.0001)                 0.000000000000000E+00
(PID.TID 0000.0001)     ;
(PID.TID 0000.0001) PTRACERS_diffKrNr = /* Vertical Diffusivity */
(PID.TID 0000.0001)    23 @  1.000000000000000E-05              /* K =  1: 23 */
(PID.TID 0000.0001)     ;
(PID.TID 0000.0001) PTRACERS_useGMRedi = /* apply GM-Redi */
(PID.TID 0000.0001)                   T
(PID.TID 0000.0001)     ;
(PID.TID 0000.0001) PTRACERS_useDWNSLP = /* apply DOWN-SLOPE Flow */
(PID.TID 0000.0001)                   F
(PID.TID 0000.0001)     ;
(PID.TID 0000.0001) PTRACERS_useKPP = /* apply KPP scheme */
(PID.TID 0000.0001)                   T
(PID.TID 0000.0001)     ;
(PID.TID 0000.0001) PTRACERS_ref = /* Reference vertical profile */
(PID.TID 0000.0001)    23 @  0.000000000000000E+00              /* K =  1: 23 */
(PID.TID 0000.0001)     ;
(PID.TID 0000.0001) PTRACERS_EvPrRn =/* tracer conc. in Evap. & Rain */
(PID.TID 0000.0001)                 1.234567000000000E+05
(PID.TID 0000.0001)     ;
(PID.TID 0000.0001)  -----------------------------------
(PID.TID 0000.0001)  tracer number :   90
(PID.TID 0000.0001) PTRACERS_names = /* Tracer short name */
(PID.TID 0000.0001)               'n33'
(PID.TID 0000.0001)     ;
(PID.TID 0000.0001) PTRACERS_long_names = /* Tracer long name */
(PID.TID 0000.0001)               ''
(PID.TID 0000.0001)     ;
(PID.TID 0000.0001) PTRACERS_ioLabel = /* tracer IO Label */
(PID.TID 0000.0001)               '90'
(PID.TID 0000.0001)     ;
(PID.TID 0000.0001) PTRACERS_advScheme = /* Advection Scheme */
(PID.TID 0000.0001)                      33
(PID.TID 0000.0001)     ;
(PID.TID 0000.0001) PTRACERS_SOM_Advection = /* tracer uses SOM advection scheme */
(PID.TID 0000.0001)                   F
(PID.TID 0000.0001)     ;
(PID.TID 0000.0001) PTRACERS_ImplVertAdv = /* implicit vert. advection flag */
(PID.TID 0000.0001)                   F
(PID.TID 0000.0001)     ;
(PID.TID 0000.0001) PTRACERS_diffKh = /* Laplacian Diffusivity */
(PID.TID 0000.0001)                 0.000000000000000E+00
(PID.TID 0000.0001)     ;
(PID.TID 0000.0001) PTRACERS_diffK4 = /* Biharmonic Diffusivity */
(PID.TID 0000.0001)                 0.000000000000000E+00
(PID.TID 0000.0001)     ;
(PID.TID 0000.0001) PTRACERS_diffKrNr = /* Vertical Diffusivity */
(PID.TID 0000.0001)    23 @  1.000000000000000E-05              /* K =  1: 23 */
(PID.TID 0000.0001)     ;
(PID.TID 0000.0001) PTRACERS_useGMRedi = /* apply GM-Redi */
(PID.TID 0000.0001)                   T
(PID.TID 0000.0001)     ;
(PID.TID 0000.0001) PTRACERS_useDWNSLP = /* apply DOWN-SLOPE Flow */
(PID.TID 0000.0001)                   F
(PID.TID 0000.0001)     ;
(PID.TID 0000.0001) PTRACERS_useKPP = /* apply KPP scheme */
(PID.TID 0000.0001)                   T
(PID.TID 0000.0001)     ;
(PID.TID 0000.0001) PTRACERS_ref = /* Reference vertical profile */
(PID.TID 0000.0001)    23 @  0.000000000000000E+00              /* K =  1: 23 */
(PID.TID 0000.0001)     ;
(PID.TID 0000.0001) PTRACERS_EvPrRn =/* tracer conc. in Evap. & Rain */
(PID.TID 0000.0001)                 1.234567000000000E+05
(PID.TID 0000.0001)     ;
(PID.TID 0000.0001)  -----------------------------------
(PID.TID 0000.0001)  tracer number :   91
(PID.TID 0000.0001) PTRACERS_names = /* Tracer short name */
(PID.TID 0000.0001)               'n34'
(PID.TID 0000.0001)     ;
(PID.TID 0000.0001) PTRACERS_long_names = /* Tracer long name */
(PID.TID 0000.0001)               ''
(PID.TID 0000.0001)     ;
(PID.TID 0000.0001) PTRACERS_ioLabel = /* tracer IO Label */
(PID.TID 0000.0001)               '91'
(PID.TID 0000.0001)     ;
(PID.TID 0000.0001) PTRACERS_advScheme = /* Advection Scheme */
(PID.TID 0000.0001)                      33
(PID.TID 0000.0001)     ;
(PID.TID 0000.0001) PTRACERS_SOM_Advection = /* tracer uses SOM advection scheme */
(PID.TID 0000.0001)                   F
(PID.TID 0000.0001)     ;
(PID.TID 0000.0001) PTRACERS_ImplVertAdv = /* implicit vert. advection flag */
(PID.TID 0000.0001)                   F
(PID.TID 0000.0001)     ;
(PID.TID 0000.0001) PTRACERS_diffKh = /* Laplacian Diffusivity */
(PID.TID 0000.0001)                 0.000000000000000E+00
(PID.TID 0000.0001)     ;
(PID.TID 0000.0001) PTRACERS_diffK4 = /* Biharmonic Diffusivity */
(PID.TID 0000.0001)                 0.000000000000000E+00
(PID.TID 0000.0001)     ;
(PID.TID 0000.0001) PTRACERS_diffKrNr = /* Vertical Diffusivity */
(PID.TID 0000.0001)    23 @  1.000000000000000E-05              /* K =  1: 23 */
(PID.TID 0000.0001)     ;
(PID.TID 0000.0001) PTRACERS_useGMRedi = /* apply GM-Redi */
(PID.TID 0000.0001)                   T
(PID.TID 0000.0001)     ;
(PID.TID 0000.0001) PTRACERS_useDWNSLP = /* apply DOWN-SLOPE Flow */
(PID.TID 0000.0001)                   F
(PID.TID 0000.0001)     ;
(PID.TID 0000.0001) PTRACERS_useKPP = /* apply KPP scheme */
(PID.TID 0000.0001)                   T
(PID.TID 0000.0001)     ;
(PID.TID 0000.0001) PTRACERS_ref = /* Reference vertical profile */
(PID.TID 0000.0001)    23 @  0.000000000000000E+00              /* K =  1: 23 */
(PID.TID 0000.0001)     ;
(PID.TID 0000.0001) PTRACERS_EvPrRn =/* tracer conc. in Evap. & Rain */
(PID.TID 0000.0001)                 1.234567000000000E+05
(PID.TID 0000.0001)     ;
(PID.TID 0000.0001)  -----------------------------------
(PID.TID 0000.0001)  tracer number :   92
(PID.TID 0000.0001) PTRACERS_names = /* Tracer short name */
(PID.TID 0000.0001)               'n35'
(PID.TID 0000.0001)     ;
(PID.TID 0000.0001) PTRACERS_long_names = /* Tracer long name */
(PID.TID 0000.0001)               ''
(PID.TID 0000.0001)     ;
(PID.TID 0000.0001) PTRACERS_ioLabel = /* tracer IO Label */
(PID.TID 0000.0001)               '92'
(PID.TID 0000.0001)     ;
(PID.TID 0000.0001) PTRACERS_advScheme = /* Advection Scheme */
(PID.TID 0000.0001)                      33
(PID.TID 0000.0001)     ;
(PID.TID 0000.0001) PTRACERS_SOM_Advection = /* tracer uses SOM advection scheme */
(PID.TID 0000.0001)                   F
(PID.TID 0000.0001)     ;
(PID.TID 0000.0001) PTRACERS_ImplVertAdv = /* implicit vert. advection flag */
(PID.TID 0000.0001)                   F
(PID.TID 0000.0001)     ;
(PID.TID 0000.0001) PTRACERS_diffKh = /* Laplacian Diffusivity */
(PID.TID 0000.0001)                 0.000000000000000E+00
(PID.TID 0000.0001)     ;
(PID.TID 0000.0001) PTRACERS_diffK4 = /* Biharmonic Diffusivity */
(PID.TID 0000.0001)                 0.000000000000000E+00
(PID.TID 0000.0001)     ;
(PID.TID 0000.0001) PTRACERS_diffKrNr = /* Vertical Diffusivity */
(PID.TID 0000.0001)    23 @  1.000000000000000E-05              /* K =  1: 23 */
(PID.TID 0000.0001)     ;
(PID.TID 0000.0001) PTRACERS_useGMRedi = /* apply GM-Redi */
(PID.TID 0000.0001)                   T
(PID.TID 0000.0001)     ;
(PID.TID 0000.0001) PTRACERS_useDWNSLP = /* apply DOWN-SLOPE Flow */
(PID.TID 0000.0001)                   F
(PID.TID 0000.0001)     ;
(PID.TID 0000.0001) PTRACERS_useKPP = /* apply KPP scheme */
(PID.TID 0000.0001)                   T
(PID.TID 0000.0001)     ;
(PID.TID 0000.0001) PTRACERS_ref = /* Reference vertical profile */
(PID.TID 0000.0001)    23 @  0.000000000000000E+00              /* K =  1: 23 */
(PID.TID 0000.0001)     ;
(PID.TID 0000.0001) PTRACERS_EvPrRn =/* tracer conc. in Evap. & Rain */
(PID.TID 0000.0001)                 1.234567000000000E+05
(PID.TID 0000.0001)     ;
(PID.TID 0000.0001)  -----------------------------------
(PID.TID 0000.0001)  tracer number :   93
(PID.TID 0000.0001) PTRACERS_names = /* Tracer short name */
(PID.TID 0000.0001)               'n36'
(PID.TID 0000.0001)     ;
(PID.TID 0000.0001) PTRACERS_long_names = /* Tracer long name */
(PID.TID 0000.0001)               ''
(PID.TID 0000.0001)     ;
(PID.TID 0000.0001) PTRACERS_ioLabel = /* tracer IO Label */
(PID.TID 0000.0001)               '93'
(PID.TID 0000.0001)     ;
(PID.TID 0000.0001) PTRACERS_advScheme = /* Advection Scheme */
(PID.TID 0000.0001)                      33
(PID.TID 0000.0001)     ;
(PID.TID 0000.0001) PTRACERS_SOM_Advection = /* tracer uses SOM advection scheme */
(PID.TID 0000.0001)                   F
(PID.TID 0000.0001)     ;
(PID.TID 0000.0001) PTRACERS_ImplVertAdv = /* implicit vert. advection flag */
(PID.TID 0000.0001)                   F
(PID.TID 0000.0001)     ;
(PID.TID 0000.0001) PTRACERS_diffKh = /* Laplacian Diffusivity */
(PID.TID 0000.0001)                 0.000000000000000E+00
(PID.TID 0000.0001)     ;
(PID.TID 0000.0001) PTRACERS_diffK4 = /* Biharmonic Diffusivity */
(PID.TID 0000.0001)                 0.000000000000000E+00
(PID.TID 0000.0001)     ;
(PID.TID 0000.0001) PTRACERS_diffKrNr = /* Vertical Diffusivity */
(PID.TID 0000.0001)    23 @  1.000000000000000E-05              /* K =  1: 23 */
(PID.TID 0000.0001)     ;
(PID.TID 0000.0001) PTRACERS_useGMRedi = /* apply GM-Redi */
(PID.TID 0000.0001)                   T
(PID.TID 0000.0001)     ;
(PID.TID 0000.0001) PTRACERS_useDWNSLP = /* apply DOWN-SLOPE Flow */
(PID.TID 0000.0001)                   F
(PID.TID 0000.0001)     ;
(PID.TID 0000.0001) PTRACERS_useKPP = /* apply KPP scheme */
(PID.TID 0000.0001)                   T
(PID.TID 0000.0001)     ;
(PID.TID 0000.0001) PTRACERS_ref = /* Reference vertical profile */
(PID.TID 0000.0001)    23 @  0.000000000000000E+00              /* K =  1: 23 */
(PID.TID 0000.0001)     ;
(PID.TID 0000.0001) PTRACERS_EvPrRn =/* tracer conc. in Evap. & Rain */
(PID.TID 0000.0001)                 1.234567000000000E+05
(PID.TID 0000.0001)     ;
(PID.TID 0000.0001)  -----------------------------------
(PID.TID 0000.0001)  tracer number :   94
(PID.TID 0000.0001) PTRACERS_names = /* Tracer short name */
(PID.TID 0000.0001)               'n37'
(PID.TID 0000.0001)     ;
(PID.TID 0000.0001) PTRACERS_long_names = /* Tracer long name */
(PID.TID 0000.0001)               ''
(PID.TID 0000.0001)     ;
(PID.TID 0000.0001) PTRACERS_ioLabel = /* tracer IO Label */
(PID.TID 0000.0001)               '94'
(PID.TID 0000.0001)     ;
(PID.TID 0000.0001) PTRACERS_advScheme = /* Advection Scheme */
(PID.TID 0000.0001)                      33
(PID.TID 0000.0001)     ;
(PID.TID 0000.0001) PTRACERS_SOM_Advection = /* tracer uses SOM advection scheme */
(PID.TID 0000.0001)                   F
(PID.TID 0000.0001)     ;
(PID.TID 0000.0001) PTRACERS_ImplVertAdv = /* implicit vert. advection flag */
(PID.TID 0000.0001)                   F
(PID.TID 0000.0001)     ;
(PID.TID 0000.0001) PTRACERS_diffKh = /* Laplacian Diffusivity */
(PID.TID 0000.0001)                 0.000000000000000E+00
(PID.TID 0000.0001)     ;
(PID.TID 0000.0001) PTRACERS_diffK4 = /* Biharmonic Diffusivity */
(PID.TID 0000.0001)                 0.000000000000000E+00
(PID.TID 0000.0001)     ;
(PID.TID 0000.0001) PTRACERS_diffKrNr = /* Vertical Diffusivity */
(PID.TID 0000.0001)    23 @  1.000000000000000E-05              /* K =  1: 23 */
(PID.TID 0000.0001)     ;
(PID.TID 0000.0001) PTRACERS_useGMRedi = /* apply GM-Redi */
(PID.TID 0000.0001)                   T
(PID.TID 0000.0001)     ;
(PID.TID 0000.0001) PTRACERS_useDWNSLP = /* apply DOWN-SLOPE Flow */
(PID.TID 0000.0001)                   F
(PID.TID 0000.0001)     ;
(PID.TID 0000.0001) PTRACERS_useKPP = /* apply KPP scheme */
(PID.TID 0000.0001)                   T
(PID.TID 0000.0001)     ;
(PID.TID 0000.0001) PTRACERS_ref = /* Reference vertical profile */
(PID.TID 0000.0001)    23 @  0.000000000000000E+00              /* K =  1: 23 */
(PID.TID 0000.0001)     ;
(PID.TID 0000.0001) PTRACERS_EvPrRn =/* tracer conc. in Evap. & Rain */
(PID.TID 0000.0001)                 1.234567000000000E+05
(PID.TID 0000.0001)     ;
(PID.TID 0000.0001)  -----------------------------------
(PID.TID 0000.0001)  tracer number :   95
(PID.TID 0000.0001) PTRACERS_names = /* Tracer short name */
(PID.TID 0000.0001)               'n38'
(PID.TID 0000.0001)     ;
(PID.TID 0000.0001) PTRACERS_long_names = /* Tracer long name */
(PID.TID 0000.0001)               ''
(PID.TID 0000.0001)     ;
(PID.TID 0000.0001) PTRACERS_ioLabel = /* tracer IO Label */
(PID.TID 0000.0001)               '95'
(PID.TID 0000.0001)     ;
(PID.TID 0000.0001) PTRACERS_advScheme = /* Advection Scheme */
(PID.TID 0000.0001)                      33
(PID.TID 0000.0001)     ;
(PID.TID 0000.0001) PTRACERS_SOM_Advection = /* tracer uses SOM advection scheme */
(PID.TID 0000.0001)                   F
(PID.TID 0000.0001)     ;
(PID.TID 0000.0001) PTRACERS_ImplVertAdv = /* implicit vert. advection flag */
(PID.TID 0000.0001)                   F
(PID.TID 0000.0001)     ;
(PID.TID 0000.0001) PTRACERS_diffKh = /* Laplacian Diffusivity */
(PID.TID 0000.0001)                 0.000000000000000E+00
(PID.TID 0000.0001)     ;
(PID.TID 0000.0001) PTRACERS_diffK4 = /* Biharmonic Diffusivity */
(PID.TID 0000.0001)                 0.000000000000000E+00
(PID.TID 0000.0001)     ;
(PID.TID 0000.0001) PTRACERS_diffKrNr = /* Vertical Diffusivity */
(PID.TID 0000.0001)    23 @  1.000000000000000E-05              /* K =  1: 23 */
(PID.TID 0000.0001)     ;
(PID.TID 0000.0001) PTRACERS_useGMRedi = /* apply GM-Redi */
(PID.TID 0000.0001)                   T
(PID.TID 0000.0001)     ;
(PID.TID 0000.0001) PTRACERS_useDWNSLP = /* apply DOWN-SLOPE Flow */
(PID.TID 0000.0001)                   F
(PID.TID 0000.0001)     ;
(PID.TID 0000.0001) PTRACERS_useKPP = /* apply KPP scheme */
(PID.TID 0000.0001)                   T
(PID.TID 0000.0001)     ;
(PID.TID 0000.0001) PTRACERS_ref = /* Reference vertical profile */
(PID.TID 0000.0001)    23 @  0.000000000000000E+00              /* K =  1: 23 */
(PID.TID 0000.0001)     ;
(PID.TID 0000.0001) PTRACERS_EvPrRn =/* tracer conc. in Evap. & Rain */
(PID.TID 0000.0001)                 1.234567000000000E+05
(PID.TID 0000.0001)     ;
(PID.TID 0000.0001)  -----------------------------------
(PID.TID 0000.0001)  tracer number :   96
(PID.TID 0000.0001) PTRACERS_names = /* Tracer short name */
(PID.TID 0000.0001)               'p01'
(PID.TID 0000.0001)     ;
(PID.TID 0000.0001) PTRACERS_long_names = /* Tracer long name */
(PID.TID 0000.0001)               ''
(PID.TID 0000.0001)     ;
(PID.TID 0000.0001) PTRACERS_ioLabel = /* tracer IO Label */
(PID.TID 0000.0001)               '96'
(PID.TID 0000.0001)     ;
(PID.TID 0000.0001) PTRACERS_advScheme = /* Advection Scheme */
(PID.TID 0000.0001)                      33
(PID.TID 0000.0001)     ;
(PID.TID 0000.0001) PTRACERS_SOM_Advection = /* tracer uses SOM advection scheme */
(PID.TID 0000.0001)                   F
(PID.TID 0000.0001)     ;
(PID.TID 0000.0001) PTRACERS_ImplVertAdv = /* implicit vert. advection flag */
(PID.TID 0000.0001)                   F
(PID.TID 0000.0001)     ;
(PID.TID 0000.0001) PTRACERS_diffKh = /* Laplacian Diffusivity */
(PID.TID 0000.0001)                 0.000000000000000E+00
(PID.TID 0000.0001)     ;
(PID.TID 0000.0001) PTRACERS_diffK4 = /* Biharmonic Diffusivity */
(PID.TID 0000.0001)                 0.000000000000000E+00
(PID.TID 0000.0001)     ;
(PID.TID 0000.0001) PTRACERS_diffKrNr = /* Vertical Diffusivity */
(PID.TID 0000.0001)    23 @  1.000000000000000E-05              /* K =  1: 23 */
(PID.TID 0000.0001)     ;
(PID.TID 0000.0001) PTRACERS_useGMRedi = /* apply GM-Redi */
(PID.TID 0000.0001)                   T
(PID.TID 0000.0001)     ;
(PID.TID 0000.0001) PTRACERS_useDWNSLP = /* apply DOWN-SLOPE Flow */
(PID.TID 0000.0001)                   F
(PID.TID 0000.0001)     ;
(PID.TID 0000.0001) PTRACERS_useKPP = /* apply KPP scheme */
(PID.TID 0000.0001)                   T
(PID.TID 0000.0001)     ;
(PID.TID 0000.0001) PTRACERS_ref = /* Reference vertical profile */
(PID.TID 0000.0001)    23 @  0.000000000000000E+00              /* K =  1: 23 */
(PID.TID 0000.0001)     ;
(PID.TID 0000.0001) PTRACERS_EvPrRn =/* tracer conc. in Evap. & Rain */
(PID.TID 0000.0001)                 1.234567000000000E+05
(PID.TID 0000.0001)     ;
(PID.TID 0000.0001)  -----------------------------------
(PID.TID 0000.0001)  tracer number :   97
(PID.TID 0000.0001) PTRACERS_names = /* Tracer short name */
(PID.TID 0000.0001)               'p02'
(PID.TID 0000.0001)     ;
(PID.TID 0000.0001) PTRACERS_long_names = /* Tracer long name */
(PID.TID 0000.0001)               ''
(PID.TID 0000.0001)     ;
(PID.TID 0000.0001) PTRACERS_ioLabel = /* tracer IO Label */
(PID.TID 0000.0001)               '97'
(PID.TID 0000.0001)     ;
(PID.TID 0000.0001) PTRACERS_advScheme = /* Advection Scheme */
(PID.TID 0000.0001)                      33
(PID.TID 0000.0001)     ;
(PID.TID 0000.0001) PTRACERS_SOM_Advection = /* tracer uses SOM advection scheme */
(PID.TID 0000.0001)                   F
(PID.TID 0000.0001)     ;
(PID.TID 0000.0001) PTRACERS_ImplVertAdv = /* implicit vert. advection flag */
(PID.TID 0000.0001)                   F
(PID.TID 0000.0001)     ;
(PID.TID 0000.0001) PTRACERS_diffKh = /* Laplacian Diffusivity */
(PID.TID 0000.0001)                 0.000000000000000E+00
(PID.TID 0000.0001)     ;
(PID.TID 0000.0001) PTRACERS_diffK4 = /* Biharmonic Diffusivity */
(PID.TID 0000.0001)                 0.000000000000000E+00
(PID.TID 0000.0001)     ;
(PID.TID 0000.0001) PTRACERS_diffKrNr = /* Vertical Diffusivity */
(PID.TID 0000.0001)    23 @  1.000000000000000E-05              /* K =  1: 23 */
(PID.TID 0000.0001)     ;
(PID.TID 0000.0001) PTRACERS_useGMRedi = /* apply GM-Redi */
(PID.TID 0000.0001)                   T
(PID.TID 0000.0001)     ;
(PID.TID 0000.0001) PTRACERS_useDWNSLP = /* apply DOWN-SLOPE Flow */
(PID.TID 0000.0001)                   F
(PID.TID 0000.0001)     ;
(PID.TID 0000.0001) PTRACERS_useKPP = /* apply KPP scheme */
(PID.TID 0000.0001)                   T
(PID.TID 0000.0001)     ;
(PID.TID 0000.0001) PTRACERS_ref = /* Reference vertical profile */
(PID.TID 0000.0001)    23 @  0.000000000000000E+00              /* K =  1: 23 */
(PID.TID 0000.0001)     ;
(PID.TID 0000.0001) PTRACERS_EvPrRn =/* tracer conc. in Evap. & Rain */
(PID.TID 0000.0001)                 1.234567000000000E+05
(PID.TID 0000.0001)     ;
(PID.TID 0000.0001)  -----------------------------------
(PID.TID 0000.0001)  tracer number :   98
(PID.TID 0000.0001) PTRACERS_names = /* Tracer short name */
(PID.TID 0000.0001)               'p03'
(PID.TID 0000.0001)     ;
(PID.TID 0000.0001) PTRACERS_long_names = /* Tracer long name */
(PID.TID 0000.0001)               ''
(PID.TID 0000.0001)     ;
(PID.TID 0000.0001) PTRACERS_ioLabel = /* tracer IO Label */
(PID.TID 0000.0001)               '98'
(PID.TID 0000.0001)     ;
(PID.TID 0000.0001) PTRACERS_advScheme = /* Advection Scheme */
(PID.TID 0000.0001)                      33
(PID.TID 0000.0001)     ;
(PID.TID 0000.0001) PTRACERS_SOM_Advection = /* tracer uses SOM advection scheme */
(PID.TID 0000.0001)                   F
(PID.TID 0000.0001)     ;
(PID.TID 0000.0001) PTRACERS_ImplVertAdv = /* implicit vert. advection flag */
(PID.TID 0000.0001)                   F
(PID.TID 0000.0001)     ;
(PID.TID 0000.0001) PTRACERS_diffKh = /* Laplacian Diffusivity */
(PID.TID 0000.0001)                 0.000000000000000E+00
(PID.TID 0000.0001)     ;
(PID.TID 0000.0001) PTRACERS_diffK4 = /* Biharmonic Diffusivity */
(PID.TID 0000.0001)                 0.000000000000000E+00
(PID.TID 0000.0001)     ;
(PID.TID 0000.0001) PTRACERS_diffKrNr = /* Vertical Diffusivity */
(PID.TID 0000.0001)    23 @  1.000000000000000E-05              /* K =  1: 23 */
(PID.TID 0000.0001)     ;
(PID.TID 0000.0001) PTRACERS_useGMRedi = /* apply GM-Redi */
(PID.TID 0000.0001)                   T
(PID.TID 0000.0001)     ;
(PID.TID 0000.0001) PTRACERS_useDWNSLP = /* apply DOWN-SLOPE Flow */
(PID.TID 0000.0001)                   F
(PID.TID 0000.0001)     ;
(PID.TID 0000.0001) PTRACERS_useKPP = /* apply KPP scheme */
(PID.TID 0000.0001)                   T
(PID.TID 0000.0001)     ;
(PID.TID 0000.0001) PTRACERS_ref = /* Reference vertical profile */
(PID.TID 0000.0001)    23 @  0.000000000000000E+00              /* K =  1: 23 */
(PID.TID 0000.0001)     ;
(PID.TID 0000.0001) PTRACERS_EvPrRn =/* tracer conc. in Evap. & Rain */
(PID.TID 0000.0001)                 1.234567000000000E+05
(PID.TID 0000.0001)     ;
(PID.TID 0000.0001)  -----------------------------------
(PID.TID 0000.0001)  tracer number :   99
(PID.TID 0000.0001) PTRACERS_names = /* Tracer short name */
(PID.TID 0000.0001)               'p04'
(PID.TID 0000.0001)     ;
(PID.TID 0000.0001) PTRACERS_long_names = /* Tracer long name */
(PID.TID 0000.0001)               ''
(PID.TID 0000.0001)     ;
(PID.TID 0000.0001) PTRACERS_ioLabel = /* tracer IO Label */
(PID.TID 0000.0001)               '99'
(PID.TID 0000.0001)     ;
(PID.TID 0000.0001) PTRACERS_advScheme = /* Advection Scheme */
(PID.TID 0000.0001)                      33
(PID.TID 0000.0001)     ;
(PID.TID 0000.0001) PTRACERS_SOM_Advection = /* tracer uses SOM advection scheme */
(PID.TID 0000.0001)                   F
(PID.TID 0000.0001)     ;
(PID.TID 0000.0001) PTRACERS_ImplVertAdv = /* implicit vert. advection flag */
(PID.TID 0000.0001)                   F
(PID.TID 0000.0001)     ;
(PID.TID 0000.0001) PTRACERS_diffKh = /* Laplacian Diffusivity */
(PID.TID 0000.0001)                 0.000000000000000E+00
(PID.TID 0000.0001)     ;
(PID.TID 0000.0001) PTRACERS_diffK4 = /* Biharmonic Diffusivity */
(PID.TID 0000.0001)                 0.000000000000000E+00
(PID.TID 0000.0001)     ;
(PID.TID 0000.0001) PTRACERS_diffKrNr = /* Vertical Diffusivity */
(PID.TID 0000.0001)    23 @  1.000000000000000E-05              /* K =  1: 23 */
(PID.TID 0000.0001)     ;
(PID.TID 0000.0001) PTRACERS_useGMRedi = /* apply GM-Redi */
(PID.TID 0000.0001)                   T
(PID.TID 0000.0001)     ;
(PID.TID 0000.0001) PTRACERS_useDWNSLP = /* apply DOWN-SLOPE Flow */
(PID.TID 0000.0001)                   F
(PID.TID 0000.0001)     ;
(PID.TID 0000.0001) PTRACERS_useKPP = /* apply KPP scheme */
(PID.TID 0000.0001)                   T
(PID.TID 0000.0001)     ;
(PID.TID 0000.0001) PTRACERS_ref = /* Reference vertical profile */
(PID.TID 0000.0001)    23 @  0.000000000000000E+00              /* K =  1: 23 */
(PID.TID 0000.0001)     ;
(PID.TID 0000.0001) PTRACERS_EvPrRn =/* tracer conc. in Evap. & Rain */
(PID.TID 0000.0001)                 1.234567000000000E+05
(PID.TID 0000.0001)     ;
(PID.TID 0000.0001)  -----------------------------------
(PID.TID 0000.0001)  tracer number :  100
(PID.TID 0000.0001) PTRACERS_names = /* Tracer short name */
(PID.TID 0000.0001)               'p05'
(PID.TID 0000.0001)     ;
(PID.TID 0000.0001) PTRACERS_long_names = /* Tracer long name */
(PID.TID 0000.0001)               ''
(PID.TID 0000.0001)     ;
(PID.TID 0000.0001) PTRACERS_ioLabel = /* tracer IO Label */
(PID.TID 0000.0001)               '0a'
(PID.TID 0000.0001)     ;
(PID.TID 0000.0001) PTRACERS_advScheme = /* Advection Scheme */
(PID.TID 0000.0001)                      33
(PID.TID 0000.0001)     ;
(PID.TID 0000.0001) PTRACERS_SOM_Advection = /* tracer uses SOM advection scheme */
(PID.TID 0000.0001)                   F
(PID.TID 0000.0001)     ;
(PID.TID 0000.0001) PTRACERS_ImplVertAdv = /* implicit vert. advection flag */
(PID.TID 0000.0001)                   F
(PID.TID 0000.0001)     ;
(PID.TID 0000.0001) PTRACERS_diffKh = /* Laplacian Diffusivity */
(PID.TID 0000.0001)                 0.000000000000000E+00
(PID.TID 0000.0001)     ;
(PID.TID 0000.0001) PTRACERS_diffK4 = /* Biharmonic Diffusivity */
(PID.TID 0000.0001)                 0.000000000000000E+00
(PID.TID 0000.0001)     ;
(PID.TID 0000.0001) PTRACERS_diffKrNr = /* Vertical Diffusivity */
(PID.TID 0000.0001)    23 @  1.000000000000000E-05              /* K =  1: 23 */
(PID.TID 0000.0001)     ;
(PID.TID 0000.0001) PTRACERS_useGMRedi = /* apply GM-Redi */
(PID.TID 0000.0001)                   T
(PID.TID 0000.0001)     ;
(PID.TID 0000.0001) PTRACERS_useDWNSLP = /* apply DOWN-SLOPE Flow */
(PID.TID 0000.0001)                   F
(PID.TID 0000.0001)     ;
(PID.TID 0000.0001) PTRACERS_useKPP = /* apply KPP scheme */
(PID.TID 0000.0001)                   T
(PID.TID 0000.0001)     ;
(PID.TID 0000.0001) PTRACERS_ref = /* Reference vertical profile */
(PID.TID 0000.0001)    23 @  0.000000000000000E+00              /* K =  1: 23 */
(PID.TID 0000.0001)     ;
(PID.TID 0000.0001) PTRACERS_EvPrRn =/* tracer conc. in Evap. & Rain */
(PID.TID 0000.0001)                 1.234567000000000E+05
(PID.TID 0000.0001)     ;
(PID.TID 0000.0001)  -----------------------------------
(PID.TID 0000.0001)  tracer number :  101
(PID.TID 0000.0001) PTRACERS_names = /* Tracer short name */
(PID.TID 0000.0001)               'p06'
(PID.TID 0000.0001)     ;
(PID.TID 0000.0001) PTRACERS_long_names = /* Tracer long name */
(PID.TID 0000.0001)               ''
(PID.TID 0000.0001)     ;
(PID.TID 0000.0001) PTRACERS_ioLabel = /* tracer IO Label */
(PID.TID 0000.0001)               '0b'
(PID.TID 0000.0001)     ;
(PID.TID 0000.0001) PTRACERS_advScheme = /* Advection Scheme */
(PID.TID 0000.0001)                      33
(PID.TID 0000.0001)     ;
(PID.TID 0000.0001) PTRACERS_SOM_Advection = /* tracer uses SOM advection scheme */
(PID.TID 0000.0001)                   F
(PID.TID 0000.0001)     ;
(PID.TID 0000.0001) PTRACERS_ImplVertAdv = /* implicit vert. advection flag */
(PID.TID 0000.0001)                   F
(PID.TID 0000.0001)     ;
(PID.TID 0000.0001) PTRACERS_diffKh = /* Laplacian Diffusivity */
(PID.TID 0000.0001)                 0.000000000000000E+00
(PID.TID 0000.0001)     ;
(PID.TID 0000.0001) PTRACERS_diffK4 = /* Biharmonic Diffusivity */
(PID.TID 0000.0001)                 0.000000000000000E+00
(PID.TID 0000.0001)     ;
(PID.TID 0000.0001) PTRACERS_diffKrNr = /* Vertical Diffusivity */
(PID.TID 0000.0001)    23 @  1.000000000000000E-05              /* K =  1: 23 */
(PID.TID 0000.0001)     ;
(PID.TID 0000.0001) PTRACERS_useGMRedi = /* apply GM-Redi */
(PID.TID 0000.0001)                   T
(PID.TID 0000.0001)     ;
(PID.TID 0000.0001) PTRACERS_useDWNSLP = /* apply DOWN-SLOPE Flow */
(PID.TID 0000.0001)                   F
(PID.TID 0000.0001)     ;
(PID.TID 0000.0001) PTRACERS_useKPP = /* apply KPP scheme */
(PID.TID 0000.0001)                   T
(PID.TID 0000.0001)     ;
(PID.TID 0000.0001) PTRACERS_ref = /* Reference vertical profile */
(PID.TID 0000.0001)    23 @  0.000000000000000E+00              /* K =  1: 23 */
(PID.TID 0000.0001)     ;
(PID.TID 0000.0001) PTRACERS_EvPrRn =/* tracer conc. in Evap. & Rain */
(PID.TID 0000.0001)                 1.234567000000000E+05
(PID.TID 0000.0001)     ;
(PID.TID 0000.0001)  -----------------------------------
(PID.TID 0000.0001)  tracer number :  102
(PID.TID 0000.0001) PTRACERS_names = /* Tracer short name */
(PID.TID 0000.0001)               'p07'
(PID.TID 0000.0001)     ;
(PID.TID 0000.0001) PTRACERS_long_names = /* Tracer long name */
(PID.TID 0000.0001)               ''
(PID.TID 0000.0001)     ;
(PID.TID 0000.0001) PTRACERS_ioLabel = /* tracer IO Label */
(PID.TID 0000.0001)               '0c'
(PID.TID 0000.0001)     ;
(PID.TID 0000.0001) PTRACERS_advScheme = /* Advection Scheme */
(PID.TID 0000.0001)                      33
(PID.TID 0000.0001)     ;
(PID.TID 0000.0001) PTRACERS_SOM_Advection = /* tracer uses SOM advection scheme */
(PID.TID 0000.0001)                   F
(PID.TID 0000.0001)     ;
(PID.TID 0000.0001) PTRACERS_ImplVertAdv = /* implicit vert. advection flag */
(PID.TID 0000.0001)                   F
(PID.TID 0000.0001)     ;
(PID.TID 0000.0001) PTRACERS_diffKh = /* Laplacian Diffusivity */
(PID.TID 0000.0001)                 0.000000000000000E+00
(PID.TID 0000.0001)     ;
(PID.TID 0000.0001) PTRACERS_diffK4 = /* Biharmonic Diffusivity */
(PID.TID 0000.0001)                 0.000000000000000E+00
(PID.TID 0000.0001)     ;
(PID.TID 0000.0001) PTRACERS_diffKrNr = /* Vertical Diffusivity */
(PID.TID 0000.0001)    23 @  1.000000000000000E-05              /* K =  1: 23 */
(PID.TID 0000.0001)     ;
(PID.TID 0000.0001) PTRACERS_useGMRedi = /* apply GM-Redi */
(PID.TID 0000.0001)                   T
(PID.TID 0000.0001)     ;
(PID.TID 0000.0001) PTRACERS_useDWNSLP = /* apply DOWN-SLOPE Flow */
(PID.TID 0000.0001)                   F
(PID.TID 0000.0001)     ;
(PID.TID 0000.0001) PTRACERS_useKPP = /* apply KPP scheme */
(PID.TID 0000.0001)                   T
(PID.TID 0000.0001)     ;
(PID.TID 0000.0001) PTRACERS_ref = /* Reference vertical profile */
(PID.TID 0000.0001)    23 @  0.000000000000000E+00              /* K =  1: 23 */
(PID.TID 0000.0001)     ;
(PID.TID 0000.0001) PTRACERS_EvPrRn =/* tracer conc. in Evap. & Rain */
(PID.TID 0000.0001)                 1.234567000000000E+05
(PID.TID 0000.0001)     ;
(PID.TID 0000.0001)  -----------------------------------
(PID.TID 0000.0001)  tracer number :  103
(PID.TID 0000.0001) PTRACERS_names = /* Tracer short name */
(PID.TID 0000.0001)               'p08'
(PID.TID 0000.0001)     ;
(PID.TID 0000.0001) PTRACERS_long_names = /* Tracer long name */
(PID.TID 0000.0001)               ''
(PID.TID 0000.0001)     ;
(PID.TID 0000.0001) PTRACERS_ioLabel = /* tracer IO Label */
(PID.TID 0000.0001)               '0d'
(PID.TID 0000.0001)     ;
(PID.TID 0000.0001) PTRACERS_advScheme = /* Advection Scheme */
(PID.TID 0000.0001)                      33
(PID.TID 0000.0001)     ;
(PID.TID 0000.0001) PTRACERS_SOM_Advection = /* tracer uses SOM advection scheme */
(PID.TID 0000.0001)                   F
(PID.TID 0000.0001)     ;
(PID.TID 0000.0001) PTRACERS_ImplVertAdv = /* implicit vert. advection flag */
(PID.TID 0000.0001)                   F
(PID.TID 0000.0001)     ;
(PID.TID 0000.0001) PTRACERS_diffKh = /* Laplacian Diffusivity */
(PID.TID 0000.0001)                 0.000000000000000E+00
(PID.TID 0000.0001)     ;
(PID.TID 0000.0001) PTRACERS_diffK4 = /* Biharmonic Diffusivity */
(PID.TID 0000.0001)                 0.000000000000000E+00
(PID.TID 0000.0001)     ;
(PID.TID 0000.0001) PTRACERS_diffKrNr = /* Vertical Diffusivity */
(PID.TID 0000.0001)    23 @  1.000000000000000E-05              /* K =  1: 23 */
(PID.TID 0000.0001)     ;
(PID.TID 0000.0001) PTRACERS_useGMRedi = /* apply GM-Redi */
(PID.TID 0000.0001)                   T
(PID.TID 0000.0001)     ;
(PID.TID 0000.0001) PTRACERS_useDWNSLP = /* apply DOWN-SLOPE Flow */
(PID.TID 0000.0001)                   F
(PID.TID 0000.0001)     ;
(PID.TID 0000.0001) PTRACERS_useKPP = /* apply KPP scheme */
(PID.TID 0000.0001)                   T
(PID.TID 0000.0001)     ;
(PID.TID 0000.0001) PTRACERS_ref = /* Reference vertical profile */
(PID.TID 0000.0001)    23 @  0.000000000000000E+00              /* K =  1: 23 */
(PID.TID 0000.0001)     ;
(PID.TID 0000.0001) PTRACERS_EvPrRn =/* tracer conc. in Evap. & Rain */
(PID.TID 0000.0001)                 1.234567000000000E+05
(PID.TID 0000.0001)     ;
(PID.TID 0000.0001)  -----------------------------------
(PID.TID 0000.0001)  tracer number :  104
(PID.TID 0000.0001) PTRACERS_names = /* Tracer short name */
(PID.TID 0000.0001)               'p09'
(PID.TID 0000.0001)     ;
(PID.TID 0000.0001) PTRACERS_long_names = /* Tracer long name */
(PID.TID 0000.0001)               ''
(PID.TID 0000.0001)     ;
(PID.TID 0000.0001) PTRACERS_ioLabel = /* tracer IO Label */
(PID.TID 0000.0001)               '0e'
(PID.TID 0000.0001)     ;
(PID.TID 0000.0001) PTRACERS_advScheme = /* Advection Scheme */
(PID.TID 0000.0001)                      33
(PID.TID 0000.0001)     ;
(PID.TID 0000.0001) PTRACERS_SOM_Advection = /* tracer uses SOM advection scheme */
(PID.TID 0000.0001)                   F
(PID.TID 0000.0001)     ;
(PID.TID 0000.0001) PTRACERS_ImplVertAdv = /* implicit vert. advection flag */
(PID.TID 0000.0001)                   F
(PID.TID 0000.0001)     ;
(PID.TID 0000.0001) PTRACERS_diffKh = /* Laplacian Diffusivity */
(PID.TID 0000.0001)                 0.000000000000000E+00
(PID.TID 0000.0001)     ;
(PID.TID 0000.0001) PTRACERS_diffK4 = /* Biharmonic Diffusivity */
(PID.TID 0000.0001)                 0.000000000000000E+00
(PID.TID 0000.0001)     ;
(PID.TID 0000.0001) PTRACERS_diffKrNr = /* Vertical Diffusivity */
(PID.TID 0000.0001)    23 @  1.000000000000000E-05              /* K =  1: 23 */
(PID.TID 0000.0001)     ;
(PID.TID 0000.0001) PTRACERS_useGMRedi = /* apply GM-Redi */
(PID.TID 0000.0001)                   T
(PID.TID 0000.0001)     ;
(PID.TID 0000.0001) PTRACERS_useDWNSLP = /* apply DOWN-SLOPE Flow */
(PID.TID 0000.0001)                   F
(PID.TID 0000.0001)     ;
(PID.TID 0000.0001) PTRACERS_useKPP = /* apply KPP scheme */
(PID.TID 0000.0001)                   T
(PID.TID 0000.0001)     ;
(PID.TID 0000.0001) PTRACERS_ref = /* Reference vertical profile */
(PID.TID 0000.0001)    23 @  0.000000000000000E+00              /* K =  1: 23 */
(PID.TID 0000.0001)     ;
(PID.TID 0000.0001) PTRACERS_EvPrRn =/* tracer conc. in Evap. & Rain */
(PID.TID 0000.0001)                 1.234567000000000E+05
(PID.TID 0000.0001)     ;
(PID.TID 0000.0001)  -----------------------------------
(PID.TID 0000.0001)  tracer number :  105
(PID.TID 0000.0001) PTRACERS_names = /* Tracer short name */
(PID.TID 0000.0001)               'p10'
(PID.TID 0000.0001)     ;
(PID.TID 0000.0001) PTRACERS_long_names = /* Tracer long name */
(PID.TID 0000.0001)               ''
(PID.TID 0000.0001)     ;
(PID.TID 0000.0001) PTRACERS_ioLabel = /* tracer IO Label */
(PID.TID 0000.0001)               '0f'
(PID.TID 0000.0001)     ;
(PID.TID 0000.0001) PTRACERS_advScheme = /* Advection Scheme */
(PID.TID 0000.0001)                      33
(PID.TID 0000.0001)     ;
(PID.TID 0000.0001) PTRACERS_SOM_Advection = /* tracer uses SOM advection scheme */
(PID.TID 0000.0001)                   F
(PID.TID 0000.0001)     ;
(PID.TID 0000.0001) PTRACERS_ImplVertAdv = /* implicit vert. advection flag */
(PID.TID 0000.0001)                   F
(PID.TID 0000.0001)     ;
(PID.TID 0000.0001) PTRACERS_diffKh = /* Laplacian Diffusivity */
(PID.TID 0000.0001)                 0.000000000000000E+00
(PID.TID 0000.0001)     ;
(PID.TID 0000.0001) PTRACERS_diffK4 = /* Biharmonic Diffusivity */
(PID.TID 0000.0001)                 0.000000000000000E+00
(PID.TID 0000.0001)     ;
(PID.TID 0000.0001) PTRACERS_diffKrNr = /* Vertical Diffusivity */
(PID.TID 0000.0001)    23 @  1.000000000000000E-05              /* K =  1: 23 */
(PID.TID 0000.0001)     ;
(PID.TID 0000.0001) PTRACERS_useGMRedi = /* apply GM-Redi */
(PID.TID 0000.0001)                   T
(PID.TID 0000.0001)     ;
(PID.TID 0000.0001) PTRACERS_useDWNSLP = /* apply DOWN-SLOPE Flow */
(PID.TID 0000.0001)                   F
(PID.TID 0000.0001)     ;
(PID.TID 0000.0001) PTRACERS_useKPP = /* apply KPP scheme */
(PID.TID 0000.0001)                   T
(PID.TID 0000.0001)     ;
(PID.TID 0000.0001) PTRACERS_ref = /* Reference vertical profile */
(PID.TID 0000.0001)    23 @  0.000000000000000E+00              /* K =  1: 23 */
(PID.TID 0000.0001)     ;
(PID.TID 0000.0001) PTRACERS_EvPrRn =/* tracer conc. in Evap. & Rain */
(PID.TID 0000.0001)                 1.234567000000000E+05
(PID.TID 0000.0001)     ;
(PID.TID 0000.0001)  -----------------------------------
(PID.TID 0000.0001)  tracer number :  106
(PID.TID 0000.0001) PTRACERS_names = /* Tracer short name */
(PID.TID 0000.0001)               'p11'
(PID.TID 0000.0001)     ;
(PID.TID 0000.0001) PTRACERS_long_names = /* Tracer long name */
(PID.TID 0000.0001)               ''
(PID.TID 0000.0001)     ;
(PID.TID 0000.0001) PTRACERS_ioLabel = /* tracer IO Label */
(PID.TID 0000.0001)               '0g'
(PID.TID 0000.0001)     ;
(PID.TID 0000.0001) PTRACERS_advScheme = /* Advection Scheme */
(PID.TID 0000.0001)                      33
(PID.TID 0000.0001)     ;
(PID.TID 0000.0001) PTRACERS_SOM_Advection = /* tracer uses SOM advection scheme */
(PID.TID 0000.0001)                   F
(PID.TID 0000.0001)     ;
(PID.TID 0000.0001) PTRACERS_ImplVertAdv = /* implicit vert. advection flag */
(PID.TID 0000.0001)                   F
(PID.TID 0000.0001)     ;
(PID.TID 0000.0001) PTRACERS_diffKh = /* Laplacian Diffusivity */
(PID.TID 0000.0001)                 0.000000000000000E+00
(PID.TID 0000.0001)     ;
(PID.TID 0000.0001) PTRACERS_diffK4 = /* Biharmonic Diffusivity */
(PID.TID 0000.0001)                 0.000000000000000E+00
(PID.TID 0000.0001)     ;
(PID.TID 0000.0001) PTRACERS_diffKrNr = /* Vertical Diffusivity */
(PID.TID 0000.0001)    23 @  1.000000000000000E-05              /* K =  1: 23 */
(PID.TID 0000.0001)     ;
(PID.TID 0000.0001) PTRACERS_useGMRedi = /* apply GM-Redi */
(PID.TID 0000.0001)                   T
(PID.TID 0000.0001)     ;
(PID.TID 0000.0001) PTRACERS_useDWNSLP = /* apply DOWN-SLOPE Flow */
(PID.TID 0000.0001)                   F
(PID.TID 0000.0001)     ;
(PID.TID 0000.0001) PTRACERS_useKPP = /* apply KPP scheme */
(PID.TID 0000.0001)                   T
(PID.TID 0000.0001)     ;
(PID.TID 0000.0001) PTRACERS_ref = /* Reference vertical profile */
(PID.TID 0000.0001)    23 @  0.000000000000000E+00              /* K =  1: 23 */
(PID.TID 0000.0001)     ;
(PID.TID 0000.0001) PTRACERS_EvPrRn =/* tracer conc. in Evap. & Rain */
(PID.TID 0000.0001)                 1.234567000000000E+05
(PID.TID 0000.0001)     ;
(PID.TID 0000.0001)  -----------------------------------
(PID.TID 0000.0001)  tracer number :  107
(PID.TID 0000.0001) PTRACERS_names = /* Tracer short name */
(PID.TID 0000.0001)               'p12'
(PID.TID 0000.0001)     ;
(PID.TID 0000.0001) PTRACERS_long_names = /* Tracer long name */
(PID.TID 0000.0001)               ''
(PID.TID 0000.0001)     ;
(PID.TID 0000.0001) PTRACERS_ioLabel = /* tracer IO Label */
(PID.TID 0000.0001)               '0h'
(PID.TID 0000.0001)     ;
(PID.TID 0000.0001) PTRACERS_advScheme = /* Advection Scheme */
(PID.TID 0000.0001)                      33
(PID.TID 0000.0001)     ;
(PID.TID 0000.0001) PTRACERS_SOM_Advection = /* tracer uses SOM advection scheme */
(PID.TID 0000.0001)                   F
(PID.TID 0000.0001)     ;
(PID.TID 0000.0001) PTRACERS_ImplVertAdv = /* implicit vert. advection flag */
(PID.TID 0000.0001)                   F
(PID.TID 0000.0001)     ;
(PID.TID 0000.0001) PTRACERS_diffKh = /* Laplacian Diffusivity */
(PID.TID 0000.0001)                 0.000000000000000E+00
(PID.TID 0000.0001)     ;
(PID.TID 0000.0001) PTRACERS_diffK4 = /* Biharmonic Diffusivity */
(PID.TID 0000.0001)                 0.000000000000000E+00
(PID.TID 0000.0001)     ;
(PID.TID 0000.0001) PTRACERS_diffKrNr = /* Vertical Diffusivity */
(PID.TID 0000.0001)    23 @  1.000000000000000E-05              /* K =  1: 23 */
(PID.TID 0000.0001)     ;
(PID.TID 0000.0001) PTRACERS_useGMRedi = /* apply GM-Redi */
(PID.TID 0000.0001)                   T
(PID.TID 0000.0001)     ;
(PID.TID 0000.0001) PTRACERS_useDWNSLP = /* apply DOWN-SLOPE Flow */
(PID.TID 0000.0001)                   F
(PID.TID 0000.0001)     ;
(PID.TID 0000.0001) PTRACERS_useKPP = /* apply KPP scheme */
(PID.TID 0000.0001)                   T
(PID.TID 0000.0001)     ;
(PID.TID 0000.0001) PTRACERS_ref = /* Reference vertical profile */
(PID.TID 0000.0001)    23 @  0.000000000000000E+00              /* K =  1: 23 */
(PID.TID 0000.0001)     ;
(PID.TID 0000.0001) PTRACERS_EvPrRn =/* tracer conc. in Evap. & Rain */
(PID.TID 0000.0001)                 1.234567000000000E+05
(PID.TID 0000.0001)     ;
(PID.TID 0000.0001)  -----------------------------------
(PID.TID 0000.0001)  tracer number :  108
(PID.TID 0000.0001) PTRACERS_names = /* Tracer short name */
(PID.TID 0000.0001)               'p13'
(PID.TID 0000.0001)     ;
(PID.TID 0000.0001) PTRACERS_long_names = /* Tracer long name */
(PID.TID 0000.0001)               ''
(PID.TID 0000.0001)     ;
(PID.TID 0000.0001) PTRACERS_ioLabel = /* tracer IO Label */
(PID.TID 0000.0001)               '0i'
(PID.TID 0000.0001)     ;
(PID.TID 0000.0001) PTRACERS_advScheme = /* Advection Scheme */
(PID.TID 0000.0001)                      33
(PID.TID 0000.0001)     ;
(PID.TID 0000.0001) PTRACERS_SOM_Advection = /* tracer uses SOM advection scheme */
(PID.TID 0000.0001)                   F
(PID.TID 0000.0001)     ;
(PID.TID 0000.0001) PTRACERS_ImplVertAdv = /* implicit vert. advection flag */
(PID.TID 0000.0001)                   F
(PID.TID 0000.0001)     ;
(PID.TID 0000.0001) PTRACERS_diffKh = /* Laplacian Diffusivity */
(PID.TID 0000.0001)                 0.000000000000000E+00
(PID.TID 0000.0001)     ;
(PID.TID 0000.0001) PTRACERS_diffK4 = /* Biharmonic Diffusivity */
(PID.TID 0000.0001)                 0.000000000000000E+00
(PID.TID 0000.0001)     ;
(PID.TID 0000.0001) PTRACERS_diffKrNr = /* Vertical Diffusivity */
(PID.TID 0000.0001)    23 @  1.000000000000000E-05              /* K =  1: 23 */
(PID.TID 0000.0001)     ;
(PID.TID 0000.0001) PTRACERS_useGMRedi = /* apply GM-Redi */
(PID.TID 0000.0001)                   T
(PID.TID 0000.0001)     ;
(PID.TID 0000.0001) PTRACERS_useDWNSLP = /* apply DOWN-SLOPE Flow */
(PID.TID 0000.0001)                   F
(PID.TID 0000.0001)     ;
(PID.TID 0000.0001) PTRACERS_useKPP = /* apply KPP scheme */
(PID.TID 0000.0001)                   T
(PID.TID 0000.0001)     ;
(PID.TID 0000.0001) PTRACERS_ref = /* Reference vertical profile */
(PID.TID 0000.0001)    23 @  0.000000000000000E+00              /* K =  1: 23 */
(PID.TID 0000.0001)     ;
(PID.TID 0000.0001) PTRACERS_EvPrRn =/* tracer conc. in Evap. & Rain */
(PID.TID 0000.0001)                 1.234567000000000E+05
(PID.TID 0000.0001)     ;
(PID.TID 0000.0001)  -----------------------------------
(PID.TID 0000.0001)  tracer number :  109
(PID.TID 0000.0001) PTRACERS_names = /* Tracer short name */
(PID.TID 0000.0001)               'p14'
(PID.TID 0000.0001)     ;
(PID.TID 0000.0001) PTRACERS_long_names = /* Tracer long name */
(PID.TID 0000.0001)               ''
(PID.TID 0000.0001)     ;
(PID.TID 0000.0001) PTRACERS_ioLabel = /* tracer IO Label */
(PID.TID 0000.0001)               '0j'
(PID.TID 0000.0001)     ;
(PID.TID 0000.0001) PTRACERS_advScheme = /* Advection Scheme */
(PID.TID 0000.0001)                      33
(PID.TID 0000.0001)     ;
(PID.TID 0000.0001) PTRACERS_SOM_Advection = /* tracer uses SOM advection scheme */
(PID.TID 0000.0001)                   F
(PID.TID 0000.0001)     ;
(PID.TID 0000.0001) PTRACERS_ImplVertAdv = /* implicit vert. advection flag */
(PID.TID 0000.0001)                   F
(PID.TID 0000.0001)     ;
(PID.TID 0000.0001) PTRACERS_diffKh = /* Laplacian Diffusivity */
(PID.TID 0000.0001)                 0.000000000000000E+00
(PID.TID 0000.0001)     ;
(PID.TID 0000.0001) PTRACERS_diffK4 = /* Biharmonic Diffusivity */
(PID.TID 0000.0001)                 0.000000000000000E+00
(PID.TID 0000.0001)     ;
(PID.TID 0000.0001) PTRACERS_diffKrNr = /* Vertical Diffusivity */
(PID.TID 0000.0001)    23 @  1.000000000000000E-05              /* K =  1: 23 */
(PID.TID 0000.0001)     ;
(PID.TID 0000.0001) PTRACERS_useGMRedi = /* apply GM-Redi */
(PID.TID 0000.0001)                   T
(PID.TID 0000.0001)     ;
(PID.TID 0000.0001) PTRACERS_useDWNSLP = /* apply DOWN-SLOPE Flow */
(PID.TID 0000.0001)                   F
(PID.TID 0000.0001)     ;
(PID.TID 0000.0001) PTRACERS_useKPP = /* apply KPP scheme */
(PID.TID 0000.0001)                   T
(PID.TID 0000.0001)     ;
(PID.TID 0000.0001) PTRACERS_ref = /* Reference vertical profile */
(PID.TID 0000.0001)    23 @  0.000000000000000E+00              /* K =  1: 23 */
(PID.TID 0000.0001)     ;
(PID.TID 0000.0001) PTRACERS_EvPrRn =/* tracer conc. in Evap. & Rain */
(PID.TID 0000.0001)                 1.234567000000000E+05
(PID.TID 0000.0001)     ;
(PID.TID 0000.0001)  -----------------------------------
(PID.TID 0000.0001)  tracer number :  110
(PID.TID 0000.0001) PTRACERS_names = /* Tracer short name */
(PID.TID 0000.0001)               'p15'
(PID.TID 0000.0001)     ;
(PID.TID 0000.0001) PTRACERS_long_names = /* Tracer long name */
(PID.TID 0000.0001)               ''
(PID.TID 0000.0001)     ;
(PID.TID 0000.0001) PTRACERS_ioLabel = /* tracer IO Label */
(PID.TID 0000.0001)               '0k'
(PID.TID 0000.0001)     ;
(PID.TID 0000.0001) PTRACERS_advScheme = /* Advection Scheme */
(PID.TID 0000.0001)                      33
(PID.TID 0000.0001)     ;
(PID.TID 0000.0001) PTRACERS_SOM_Advection = /* tracer uses SOM advection scheme */
(PID.TID 0000.0001)                   F
(PID.TID 0000.0001)     ;
(PID.TID 0000.0001) PTRACERS_ImplVertAdv = /* implicit vert. advection flag */
(PID.TID 0000.0001)                   F
(PID.TID 0000.0001)     ;
(PID.TID 0000.0001) PTRACERS_diffKh = /* Laplacian Diffusivity */
(PID.TID 0000.0001)                 0.000000000000000E+00
(PID.TID 0000.0001)     ;
(PID.TID 0000.0001) PTRACERS_diffK4 = /* Biharmonic Diffusivity */
(PID.TID 0000.0001)                 0.000000000000000E+00
(PID.TID 0000.0001)     ;
(PID.TID 0000.0001) PTRACERS_diffKrNr = /* Vertical Diffusivity */
(PID.TID 0000.0001)    23 @  1.000000000000000E-05              /* K =  1: 23 */
(PID.TID 0000.0001)     ;
(PID.TID 0000.0001) PTRACERS_useGMRedi = /* apply GM-Redi */
(PID.TID 0000.0001)                   T
(PID.TID 0000.0001)     ;
(PID.TID 0000.0001) PTRACERS_useDWNSLP = /* apply DOWN-SLOPE Flow */
(PID.TID 0000.0001)                   F
(PID.TID 0000.0001)     ;
(PID.TID 0000.0001) PTRACERS_useKPP = /* apply KPP scheme */
(PID.TID 0000.0001)                   T
(PID.TID 0000.0001)     ;
(PID.TID 0000.0001) PTRACERS_ref = /* Reference vertical profile */
(PID.TID 0000.0001)    23 @  0.000000000000000E+00              /* K =  1: 23 */
(PID.TID 0000.0001)     ;
(PID.TID 0000.0001) PTRACERS_EvPrRn =/* tracer conc. in Evap. & Rain */
(PID.TID 0000.0001)                 1.234567000000000E+05
(PID.TID 0000.0001)     ;
(PID.TID 0000.0001)  -----------------------------------
(PID.TID 0000.0001)  tracer number :  111
(PID.TID 0000.0001) PTRACERS_names = /* Tracer short name */
(PID.TID 0000.0001)               'p16'
(PID.TID 0000.0001)     ;
(PID.TID 0000.0001) PTRACERS_long_names = /* Tracer long name */
(PID.TID 0000.0001)               ''
(PID.TID 0000.0001)     ;
(PID.TID 0000.0001) PTRACERS_ioLabel = /* tracer IO Label */
(PID.TID 0000.0001)               '0l'
(PID.TID 0000.0001)     ;
(PID.TID 0000.0001) PTRACERS_advScheme = /* Advection Scheme */
(PID.TID 0000.0001)                      33
(PID.TID 0000.0001)     ;
(PID.TID 0000.0001) PTRACERS_SOM_Advection = /* tracer uses SOM advection scheme */
(PID.TID 0000.0001)                   F
(PID.TID 0000.0001)     ;
(PID.TID 0000.0001) PTRACERS_ImplVertAdv = /* implicit vert. advection flag */
(PID.TID 0000.0001)                   F
(PID.TID 0000.0001)     ;
(PID.TID 0000.0001) PTRACERS_diffKh = /* Laplacian Diffusivity */
(PID.TID 0000.0001)                 0.000000000000000E+00
(PID.TID 0000.0001)     ;
(PID.TID 0000.0001) PTRACERS_diffK4 = /* Biharmonic Diffusivity */
(PID.TID 0000.0001)                 0.000000000000000E+00
(PID.TID 0000.0001)     ;
(PID.TID 0000.0001) PTRACERS_diffKrNr = /* Vertical Diffusivity */
(PID.TID 0000.0001)    23 @  1.000000000000000E-05              /* K =  1: 23 */
(PID.TID 0000.0001)     ;
(PID.TID 0000.0001) PTRACERS_useGMRedi = /* apply GM-Redi */
(PID.TID 0000.0001)                   T
(PID.TID 0000.0001)     ;
(PID.TID 0000.0001) PTRACERS_useDWNSLP = /* apply DOWN-SLOPE Flow */
(PID.TID 0000.0001)                   F
(PID.TID 0000.0001)     ;
(PID.TID 0000.0001) PTRACERS_useKPP = /* apply KPP scheme */
(PID.TID 0000.0001)                   T
(PID.TID 0000.0001)     ;
(PID.TID 0000.0001) PTRACERS_ref = /* Reference vertical profile */
(PID.TID 0000.0001)    23 @  0.000000000000000E+00              /* K =  1: 23 */
(PID.TID 0000.0001)     ;
(PID.TID 0000.0001) PTRACERS_EvPrRn =/* tracer conc. in Evap. & Rain */
(PID.TID 0000.0001)                 1.234567000000000E+05
(PID.TID 0000.0001)     ;
(PID.TID 0000.0001)  -----------------------------------
(PID.TID 0000.0001)  tracer number :  112
(PID.TID 0000.0001) PTRACERS_names = /* Tracer short name */
(PID.TID 0000.0001)               'p17'
(PID.TID 0000.0001)     ;
(PID.TID 0000.0001) PTRACERS_long_names = /* Tracer long name */
(PID.TID 0000.0001)               ''
(PID.TID 0000.0001)     ;
(PID.TID 0000.0001) PTRACERS_ioLabel = /* tracer IO Label */
(PID.TID 0000.0001)               '0m'
(PID.TID 0000.0001)     ;
(PID.TID 0000.0001) PTRACERS_advScheme = /* Advection Scheme */
(PID.TID 0000.0001)                      33
(PID.TID 0000.0001)     ;
(PID.TID 0000.0001) PTRACERS_SOM_Advection = /* tracer uses SOM advection scheme */
(PID.TID 0000.0001)                   F
(PID.TID 0000.0001)     ;
(PID.TID 0000.0001) PTRACERS_ImplVertAdv = /* implicit vert. advection flag */
(PID.TID 0000.0001)                   F
(PID.TID 0000.0001)     ;
(PID.TID 0000.0001) PTRACERS_diffKh = /* Laplacian Diffusivity */
(PID.TID 0000.0001)                 0.000000000000000E+00
(PID.TID 0000.0001)     ;
(PID.TID 0000.0001) PTRACERS_diffK4 = /* Biharmonic Diffusivity */
(PID.TID 0000.0001)                 0.000000000000000E+00
(PID.TID 0000.0001)     ;
(PID.TID 0000.0001) PTRACERS_diffKrNr = /* Vertical Diffusivity */
(PID.TID 0000.0001)    23 @  1.000000000000000E-05              /* K =  1: 23 */
(PID.TID 0000.0001)     ;
(PID.TID 0000.0001) PTRACERS_useGMRedi = /* apply GM-Redi */
(PID.TID 0000.0001)                   T
(PID.TID 0000.0001)     ;
(PID.TID 0000.0001) PTRACERS_useDWNSLP = /* apply DOWN-SLOPE Flow */
(PID.TID 0000.0001)                   F
(PID.TID 0000.0001)     ;
(PID.TID 0000.0001) PTRACERS_useKPP = /* apply KPP scheme */
(PID.TID 0000.0001)                   T
(PID.TID 0000.0001)     ;
(PID.TID 0000.0001) PTRACERS_ref = /* Reference vertical profile */
(PID.TID 0000.0001)    23 @  0.000000000000000E+00              /* K =  1: 23 */
(PID.TID 0000.0001)     ;
(PID.TID 0000.0001) PTRACERS_EvPrRn =/* tracer conc. in Evap. & Rain */
(PID.TID 0000.0001)                 1.234567000000000E+05
(PID.TID 0000.0001)     ;
(PID.TID 0000.0001)  -----------------------------------
(PID.TID 0000.0001)  tracer number :  113
(PID.TID 0000.0001) PTRACERS_names = /* Tracer short name */
(PID.TID 0000.0001)               'p18'
(PID.TID 0000.0001)     ;
(PID.TID 0000.0001) PTRACERS_long_names = /* Tracer long name */
(PID.TID 0000.0001)               ''
(PID.TID 0000.0001)     ;
(PID.TID 0000.0001) PTRACERS_ioLabel = /* tracer IO Label */
(PID.TID 0000.0001)               '0n'
(PID.TID 0000.0001)     ;
(PID.TID 0000.0001) PTRACERS_advScheme = /* Advection Scheme */
(PID.TID 0000.0001)                      33
(PID.TID 0000.0001)     ;
(PID.TID 0000.0001) PTRACERS_SOM_Advection = /* tracer uses SOM advection scheme */
(PID.TID 0000.0001)                   F
(PID.TID 0000.0001)     ;
(PID.TID 0000.0001) PTRACERS_ImplVertAdv = /* implicit vert. advection flag */
(PID.TID 0000.0001)                   F
(PID.TID 0000.0001)     ;
(PID.TID 0000.0001) PTRACERS_diffKh = /* Laplacian Diffusivity */
(PID.TID 0000.0001)                 0.000000000000000E+00
(PID.TID 0000.0001)     ;
(PID.TID 0000.0001) PTRACERS_diffK4 = /* Biharmonic Diffusivity */
(PID.TID 0000.0001)                 0.000000000000000E+00
(PID.TID 0000.0001)     ;
(PID.TID 0000.0001) PTRACERS_diffKrNr = /* Vertical Diffusivity */
(PID.TID 0000.0001)    23 @  1.000000000000000E-05              /* K =  1: 23 */
(PID.TID 0000.0001)     ;
(PID.TID 0000.0001) PTRACERS_useGMRedi = /* apply GM-Redi */
(PID.TID 0000.0001)                   T
(PID.TID 0000.0001)     ;
(PID.TID 0000.0001) PTRACERS_useDWNSLP = /* apply DOWN-SLOPE Flow */
(PID.TID 0000.0001)                   F
(PID.TID 0000.0001)     ;
(PID.TID 0000.0001) PTRACERS_useKPP = /* apply KPP scheme */
(PID.TID 0000.0001)                   T
(PID.TID 0000.0001)     ;
(PID.TID 0000.0001) PTRACERS_ref = /* Reference vertical profile */
(PID.TID 0000.0001)    23 @  0.000000000000000E+00              /* K =  1: 23 */
(PID.TID 0000.0001)     ;
(PID.TID 0000.0001) PTRACERS_EvPrRn =/* tracer conc. in Evap. & Rain */
(PID.TID 0000.0001)                 1.234567000000000E+05
(PID.TID 0000.0001)     ;
(PID.TID 0000.0001)  -----------------------------------
(PID.TID 0000.0001)  tracer number :  114
(PID.TID 0000.0001) PTRACERS_names = /* Tracer short name */
(PID.TID 0000.0001)               'p19'
(PID.TID 0000.0001)     ;
(PID.TID 0000.0001) PTRACERS_long_names = /* Tracer long name */
(PID.TID 0000.0001)               ''
(PID.TID 0000.0001)     ;
(PID.TID 0000.0001) PTRACERS_ioLabel = /* tracer IO Label */
(PID.TID 0000.0001)               '0o'
(PID.TID 0000.0001)     ;
(PID.TID 0000.0001) PTRACERS_advScheme = /* Advection Scheme */
(PID.TID 0000.0001)                      33
(PID.TID 0000.0001)     ;
(PID.TID 0000.0001) PTRACERS_SOM_Advection = /* tracer uses SOM advection scheme */
(PID.TID 0000.0001)                   F
(PID.TID 0000.0001)     ;
(PID.TID 0000.0001) PTRACERS_ImplVertAdv = /* implicit vert. advection flag */
(PID.TID 0000.0001)                   F
(PID.TID 0000.0001)     ;
(PID.TID 0000.0001) PTRACERS_diffKh = /* Laplacian Diffusivity */
(PID.TID 0000.0001)                 0.000000000000000E+00
(PID.TID 0000.0001)     ;
(PID.TID 0000.0001) PTRACERS_diffK4 = /* Biharmonic Diffusivity */
(PID.TID 0000.0001)                 0.000000000000000E+00
(PID.TID 0000.0001)     ;
(PID.TID 0000.0001) PTRACERS_diffKrNr = /* Vertical Diffusivity */
(PID.TID 0000.0001)    23 @  1.000000000000000E-05              /* K =  1: 23 */
(PID.TID 0000.0001)     ;
(PID.TID 0000.0001) PTRACERS_useGMRedi = /* apply GM-Redi */
(PID.TID 0000.0001)                   T
(PID.TID 0000.0001)     ;
(PID.TID 0000.0001) PTRACERS_useDWNSLP = /* apply DOWN-SLOPE Flow */
(PID.TID 0000.0001)                   F
(PID.TID 0000.0001)     ;
(PID.TID 0000.0001) PTRACERS_useKPP = /* apply KPP scheme */
(PID.TID 0000.0001)                   T
(PID.TID 0000.0001)     ;
(PID.TID 0000.0001) PTRACERS_ref = /* Reference vertical profile */
(PID.TID 0000.0001)    23 @  0.000000000000000E+00              /* K =  1: 23 */
(PID.TID 0000.0001)     ;
(PID.TID 0000.0001) PTRACERS_EvPrRn =/* tracer conc. in Evap. & Rain */
(PID.TID 0000.0001)                 1.234567000000000E+05
(PID.TID 0000.0001)     ;
(PID.TID 0000.0001)  -----------------------------------
(PID.TID 0000.0001)  tracer number :  115
(PID.TID 0000.0001) PTRACERS_names = /* Tracer short name */
(PID.TID 0000.0001)               'p20'
(PID.TID 0000.0001)     ;
(PID.TID 0000.0001) PTRACERS_long_names = /* Tracer long name */
(PID.TID 0000.0001)               ''
(PID.TID 0000.0001)     ;
(PID.TID 0000.0001) PTRACERS_ioLabel = /* tracer IO Label */
(PID.TID 0000.0001)               '0p'
(PID.TID 0000.0001)     ;
(PID.TID 0000.0001) PTRACERS_advScheme = /* Advection Scheme */
(PID.TID 0000.0001)                      33
(PID.TID 0000.0001)     ;
(PID.TID 0000.0001) PTRACERS_SOM_Advection = /* tracer uses SOM advection scheme */
(PID.TID 0000.0001)                   F
(PID.TID 0000.0001)     ;
(PID.TID 0000.0001) PTRACERS_ImplVertAdv = /* implicit vert. advection flag */
(PID.TID 0000.0001)                   F
(PID.TID 0000.0001)     ;
(PID.TID 0000.0001) PTRACERS_diffKh = /* Laplacian Diffusivity */
(PID.TID 0000.0001)                 0.000000000000000E+00
(PID.TID 0000.0001)     ;
(PID.TID 0000.0001) PTRACERS_diffK4 = /* Biharmonic Diffusivity */
(PID.TID 0000.0001)                 0.000000000000000E+00
(PID.TID 0000.0001)     ;
(PID.TID 0000.0001) PTRACERS_diffKrNr = /* Vertical Diffusivity */
(PID.TID 0000.0001)    23 @  1.000000000000000E-05              /* K =  1: 23 */
(PID.TID 0000.0001)     ;
(PID.TID 0000.0001) PTRACERS_useGMRedi = /* apply GM-Redi */
(PID.TID 0000.0001)                   T
(PID.TID 0000.0001)     ;
(PID.TID 0000.0001) PTRACERS_useDWNSLP = /* apply DOWN-SLOPE Flow */
(PID.TID 0000.0001)                   F
(PID.TID 0000.0001)     ;
(PID.TID 0000.0001) PTRACERS_useKPP = /* apply KPP scheme */
(PID.TID 0000.0001)                   T
(PID.TID 0000.0001)     ;
(PID.TID 0000.0001) PTRACERS_ref = /* Reference vertical profile */
(PID.TID 0000.0001)    23 @  0.000000000000000E+00              /* K =  1: 23 */
(PID.TID 0000.0001)     ;
(PID.TID 0000.0001) PTRACERS_EvPrRn =/* tracer conc. in Evap. & Rain */
(PID.TID 0000.0001)                 1.234567000000000E+05
(PID.TID 0000.0001)     ;
(PID.TID 0000.0001)  -----------------------------------
(PID.TID 0000.0001)  tracer number :  116
(PID.TID 0000.0001) PTRACERS_names = /* Tracer short name */
(PID.TID 0000.0001)               'p21'
(PID.TID 0000.0001)     ;
(PID.TID 0000.0001) PTRACERS_long_names = /* Tracer long name */
(PID.TID 0000.0001)               ''
(PID.TID 0000.0001)     ;
(PID.TID 0000.0001) PTRACERS_ioLabel = /* tracer IO Label */
(PID.TID 0000.0001)               '0q'
(PID.TID 0000.0001)     ;
(PID.TID 0000.0001) PTRACERS_advScheme = /* Advection Scheme */
(PID.TID 0000.0001)                      33
(PID.TID 0000.0001)     ;
(PID.TID 0000.0001) PTRACERS_SOM_Advection = /* tracer uses SOM advection scheme */
(PID.TID 0000.0001)                   F
(PID.TID 0000.0001)     ;
(PID.TID 0000.0001) PTRACERS_ImplVertAdv = /* implicit vert. advection flag */
(PID.TID 0000.0001)                   F
(PID.TID 0000.0001)     ;
(PID.TID 0000.0001) PTRACERS_diffKh = /* Laplacian Diffusivity */
(PID.TID 0000.0001)                 0.000000000000000E+00
(PID.TID 0000.0001)     ;
(PID.TID 0000.0001) PTRACERS_diffK4 = /* Biharmonic Diffusivity */
(PID.TID 0000.0001)                 0.000000000000000E+00
(PID.TID 0000.0001)     ;
(PID.TID 0000.0001) PTRACERS_diffKrNr = /* Vertical Diffusivity */
(PID.TID 0000.0001)    23 @  1.000000000000000E-05              /* K =  1: 23 */
(PID.TID 0000.0001)     ;
(PID.TID 0000.0001) PTRACERS_useGMRedi = /* apply GM-Redi */
(PID.TID 0000.0001)                   T
(PID.TID 0000.0001)     ;
(PID.TID 0000.0001) PTRACERS_useDWNSLP = /* apply DOWN-SLOPE Flow */
(PID.TID 0000.0001)                   F
(PID.TID 0000.0001)     ;
(PID.TID 0000.0001) PTRACERS_useKPP = /* apply KPP scheme */
(PID.TID 0000.0001)                   T
(PID.TID 0000.0001)     ;
(PID.TID 0000.0001) PTRACERS_ref = /* Reference vertical profile */
(PID.TID 0000.0001)    23 @  0.000000000000000E+00              /* K =  1: 23 */
(PID.TID 0000.0001)     ;
(PID.TID 0000.0001) PTRACERS_EvPrRn =/* tracer conc. in Evap. & Rain */
(PID.TID 0000.0001)                 1.234567000000000E+05
(PID.TID 0000.0001)     ;
(PID.TID 0000.0001)  -----------------------------------
(PID.TID 0000.0001)  tracer number :  117
(PID.TID 0000.0001) PTRACERS_names = /* Tracer short name */
(PID.TID 0000.0001)               'p22'
(PID.TID 0000.0001)     ;
(PID.TID 0000.0001) PTRACERS_long_names = /* Tracer long name */
(PID.TID 0000.0001)               ''
(PID.TID 0000.0001)     ;
(PID.TID 0000.0001) PTRACERS_ioLabel = /* tracer IO Label */
(PID.TID 0000.0001)               '0r'
(PID.TID 0000.0001)     ;
(PID.TID 0000.0001) PTRACERS_advScheme = /* Advection Scheme */
(PID.TID 0000.0001)                      33
(PID.TID 0000.0001)     ;
(PID.TID 0000.0001) PTRACERS_SOM_Advection = /* tracer uses SOM advection scheme */
(PID.TID 0000.0001)                   F
(PID.TID 0000.0001)     ;
(PID.TID 0000.0001) PTRACERS_ImplVertAdv = /* implicit vert. advection flag */
(PID.TID 0000.0001)                   F
(PID.TID 0000.0001)     ;
(PID.TID 0000.0001) PTRACERS_diffKh = /* Laplacian Diffusivity */
(PID.TID 0000.0001)                 0.000000000000000E+00
(PID.TID 0000.0001)     ;
(PID.TID 0000.0001) PTRACERS_diffK4 = /* Biharmonic Diffusivity */
(PID.TID 0000.0001)                 0.000000000000000E+00
(PID.TID 0000.0001)     ;
(PID.TID 0000.0001) PTRACERS_diffKrNr = /* Vertical Diffusivity */
(PID.TID 0000.0001)    23 @  1.000000000000000E-05              /* K =  1: 23 */
(PID.TID 0000.0001)     ;
(PID.TID 0000.0001) PTRACERS_useGMRedi = /* apply GM-Redi */
(PID.TID 0000.0001)                   T
(PID.TID 0000.0001)     ;
(PID.TID 0000.0001) PTRACERS_useDWNSLP = /* apply DOWN-SLOPE Flow */
(PID.TID 0000.0001)                   F
(PID.TID 0000.0001)     ;
(PID.TID 0000.0001) PTRACERS_useKPP = /* apply KPP scheme */
(PID.TID 0000.0001)                   T
(PID.TID 0000.0001)     ;
(PID.TID 0000.0001) PTRACERS_ref = /* Reference vertical profile */
(PID.TID 0000.0001)    23 @  0.000000000000000E+00              /* K =  1: 23 */
(PID.TID 0000.0001)     ;
(PID.TID 0000.0001) PTRACERS_EvPrRn =/* tracer conc. in Evap. & Rain */
(PID.TID 0000.0001)                 1.234567000000000E+05
(PID.TID 0000.0001)     ;
(PID.TID 0000.0001)  -----------------------------------
(PID.TID 0000.0001)  tracer number :  118
(PID.TID 0000.0001) PTRACERS_names = /* Tracer short name */
(PID.TID 0000.0001)               'p23'
(PID.TID 0000.0001)     ;
(PID.TID 0000.0001) PTRACERS_long_names = /* Tracer long name */
(PID.TID 0000.0001)               ''
(PID.TID 0000.0001)     ;
(PID.TID 0000.0001) PTRACERS_ioLabel = /* tracer IO Label */
(PID.TID 0000.0001)               '0s'
(PID.TID 0000.0001)     ;
(PID.TID 0000.0001) PTRACERS_advScheme = /* Advection Scheme */
(PID.TID 0000.0001)                      33
(PID.TID 0000.0001)     ;
(PID.TID 0000.0001) PTRACERS_SOM_Advection = /* tracer uses SOM advection scheme */
(PID.TID 0000.0001)                   F
(PID.TID 0000.0001)     ;
(PID.TID 0000.0001) PTRACERS_ImplVertAdv = /* implicit vert. advection flag */
(PID.TID 0000.0001)                   F
(PID.TID 0000.0001)     ;
(PID.TID 0000.0001) PTRACERS_diffKh = /* Laplacian Diffusivity */
(PID.TID 0000.0001)                 0.000000000000000E+00
(PID.TID 0000.0001)     ;
(PID.TID 0000.0001) PTRACERS_diffK4 = /* Biharmonic Diffusivity */
(PID.TID 0000.0001)                 0.000000000000000E+00
(PID.TID 0000.0001)     ;
(PID.TID 0000.0001) PTRACERS_diffKrNr = /* Vertical Diffusivity */
(PID.TID 0000.0001)    23 @  1.000000000000000E-05              /* K =  1: 23 */
(PID.TID 0000.0001)     ;
(PID.TID 0000.0001) PTRACERS_useGMRedi = /* apply GM-Redi */
(PID.TID 0000.0001)                   T
(PID.TID 0000.0001)     ;
(PID.TID 0000.0001) PTRACERS_useDWNSLP = /* apply DOWN-SLOPE Flow */
(PID.TID 0000.0001)                   F
(PID.TID 0000.0001)     ;
(PID.TID 0000.0001) PTRACERS_useKPP = /* apply KPP scheme */
(PID.TID 0000.0001)                   T
(PID.TID 0000.0001)     ;
(PID.TID 0000.0001) PTRACERS_ref = /* Reference vertical profile */
(PID.TID 0000.0001)    23 @  0.000000000000000E+00              /* K =  1: 23 */
(PID.TID 0000.0001)     ;
(PID.TID 0000.0001) PTRACERS_EvPrRn =/* tracer conc. in Evap. & Rain */
(PID.TID 0000.0001)                 1.234567000000000E+05
(PID.TID 0000.0001)     ;
(PID.TID 0000.0001)  -----------------------------------
(PID.TID 0000.0001)  tracer number :  119
(PID.TID 0000.0001) PTRACERS_names = /* Tracer short name */
(PID.TID 0000.0001)               'p24'
(PID.TID 0000.0001)     ;
(PID.TID 0000.0001) PTRACERS_long_names = /* Tracer long name */
(PID.TID 0000.0001)               ''
(PID.TID 0000.0001)     ;
(PID.TID 0000.0001) PTRACERS_ioLabel = /* tracer IO Label */
(PID.TID 0000.0001)               '0t'
(PID.TID 0000.0001)     ;
(PID.TID 0000.0001) PTRACERS_advScheme = /* Advection Scheme */
(PID.TID 0000.0001)                      33
(PID.TID 0000.0001)     ;
(PID.TID 0000.0001) PTRACERS_SOM_Advection = /* tracer uses SOM advection scheme */
(PID.TID 0000.0001)                   F
(PID.TID 0000.0001)     ;
(PID.TID 0000.0001) PTRACERS_ImplVertAdv = /* implicit vert. advection flag */
(PID.TID 0000.0001)                   F
(PID.TID 0000.0001)     ;
(PID.TID 0000.0001) PTRACERS_diffKh = /* Laplacian Diffusivity */
(PID.TID 0000.0001)                 0.000000000000000E+00
(PID.TID 0000.0001)     ;
(PID.TID 0000.0001) PTRACERS_diffK4 = /* Biharmonic Diffusivity */
(PID.TID 0000.0001)                 0.000000000000000E+00
(PID.TID 0000.0001)     ;
(PID.TID 0000.0001) PTRACERS_diffKrNr = /* Vertical Diffusivity */
(PID.TID 0000.0001)    23 @  1.000000000000000E-05              /* K =  1: 23 */
(PID.TID 0000.0001)     ;
(PID.TID 0000.0001) PTRACERS_useGMRedi = /* apply GM-Redi */
(PID.TID 0000.0001)                   T
(PID.TID 0000.0001)     ;
(PID.TID 0000.0001) PTRACERS_useDWNSLP = /* apply DOWN-SLOPE Flow */
(PID.TID 0000.0001)                   F
(PID.TID 0000.0001)     ;
(PID.TID 0000.0001) PTRACERS_useKPP = /* apply KPP scheme */
(PID.TID 0000.0001)                   T
(PID.TID 0000.0001)     ;
(PID.TID 0000.0001) PTRACERS_ref = /* Reference vertical profile */
(PID.TID 0000.0001)    23 @  0.000000000000000E+00              /* K =  1: 23 */
(PID.TID 0000.0001)     ;
(PID.TID 0000.0001) PTRACERS_EvPrRn =/* tracer conc. in Evap. & Rain */
(PID.TID 0000.0001)                 1.234567000000000E+05
(PID.TID 0000.0001)     ;
(PID.TID 0000.0001)  -----------------------------------
(PID.TID 0000.0001)  tracer number :  120
(PID.TID 0000.0001) PTRACERS_names = /* Tracer short name */
(PID.TID 0000.0001)               'p25'
(PID.TID 0000.0001)     ;
(PID.TID 0000.0001) PTRACERS_long_names = /* Tracer long name */
(PID.TID 0000.0001)               ''
(PID.TID 0000.0001)     ;
(PID.TID 0000.0001) PTRACERS_ioLabel = /* tracer IO Label */
(PID.TID 0000.0001)               '0u'
(PID.TID 0000.0001)     ;
(PID.TID 0000.0001) PTRACERS_advScheme = /* Advection Scheme */
(PID.TID 0000.0001)                      33
(PID.TID 0000.0001)     ;
(PID.TID 0000.0001) PTRACERS_SOM_Advection = /* tracer uses SOM advection scheme */
(PID.TID 0000.0001)                   F
(PID.TID 0000.0001)     ;
(PID.TID 0000.0001) PTRACERS_ImplVertAdv = /* implicit vert. advection flag */
(PID.TID 0000.0001)                   F
(PID.TID 0000.0001)     ;
(PID.TID 0000.0001) PTRACERS_diffKh = /* Laplacian Diffusivity */
(PID.TID 0000.0001)                 0.000000000000000E+00
(PID.TID 0000.0001)     ;
(PID.TID 0000.0001) PTRACERS_diffK4 = /* Biharmonic Diffusivity */
(PID.TID 0000.0001)                 0.000000000000000E+00
(PID.TID 0000.0001)     ;
(PID.TID 0000.0001) PTRACERS_diffKrNr = /* Vertical Diffusivity */
(PID.TID 0000.0001)    23 @  1.000000000000000E-05              /* K =  1: 23 */
(PID.TID 0000.0001)     ;
(PID.TID 0000.0001) PTRACERS_useGMRedi = /* apply GM-Redi */
(PID.TID 0000.0001)                   T
(PID.TID 0000.0001)     ;
(PID.TID 0000.0001) PTRACERS_useDWNSLP = /* apply DOWN-SLOPE Flow */
(PID.TID 0000.0001)                   F
(PID.TID 0000.0001)     ;
(PID.TID 0000.0001) PTRACERS_useKPP = /* apply KPP scheme */
(PID.TID 0000.0001)                   T
(PID.TID 0000.0001)     ;
(PID.TID 0000.0001) PTRACERS_ref = /* Reference vertical profile */
(PID.TID 0000.0001)    23 @  0.000000000000000E+00              /* K =  1: 23 */
(PID.TID 0000.0001)     ;
(PID.TID 0000.0001) PTRACERS_EvPrRn =/* tracer conc. in Evap. & Rain */
(PID.TID 0000.0001)                 1.234567000000000E+05
(PID.TID 0000.0001)     ;
(PID.TID 0000.0001)  -----------------------------------
(PID.TID 0000.0001)  tracer number :  121
(PID.TID 0000.0001) PTRACERS_names = /* Tracer short name */
(PID.TID 0000.0001)               'p26'
(PID.TID 0000.0001)     ;
(PID.TID 0000.0001) PTRACERS_long_names = /* Tracer long name */
(PID.TID 0000.0001)               ''
(PID.TID 0000.0001)     ;
(PID.TID 0000.0001) PTRACERS_ioLabel = /* tracer IO Label */
(PID.TID 0000.0001)               '0v'
(PID.TID 0000.0001)     ;
(PID.TID 0000.0001) PTRACERS_advScheme = /* Advection Scheme */
(PID.TID 0000.0001)                      33
(PID.TID 0000.0001)     ;
(PID.TID 0000.0001) PTRACERS_SOM_Advection = /* tracer uses SOM advection scheme */
(PID.TID 0000.0001)                   F
(PID.TID 0000.0001)     ;
(PID.TID 0000.0001) PTRACERS_ImplVertAdv = /* implicit vert. advection flag */
(PID.TID 0000.0001)                   F
(PID.TID 0000.0001)     ;
(PID.TID 0000.0001) PTRACERS_diffKh = /* Laplacian Diffusivity */
(PID.TID 0000.0001)                 0.000000000000000E+00
(PID.TID 0000.0001)     ;
(PID.TID 0000.0001) PTRACERS_diffK4 = /* Biharmonic Diffusivity */
(PID.TID 0000.0001)                 0.000000000000000E+00
(PID.TID 0000.0001)     ;
(PID.TID 0000.0001) PTRACERS_diffKrNr = /* Vertical Diffusivity */
(PID.TID 0000.0001)    23 @  1.000000000000000E-05              /* K =  1: 23 */
(PID.TID 0000.0001)     ;
(PID.TID 0000.0001) PTRACERS_useGMRedi = /* apply GM-Redi */
(PID.TID 0000.0001)                   T
(PID.TID 0000.0001)     ;
(PID.TID 0000.0001) PTRACERS_useDWNSLP = /* apply DOWN-SLOPE Flow */
(PID.TID 0000.0001)                   F
(PID.TID 0000.0001)     ;
(PID.TID 0000.0001) PTRACERS_useKPP = /* apply KPP scheme */
(PID.TID 0000.0001)                   T
(PID.TID 0000.0001)     ;
(PID.TID 0000.0001) PTRACERS_ref = /* Reference vertical profile */
(PID.TID 0000.0001)    23 @  0.000000000000000E+00              /* K =  1: 23 */
(PID.TID 0000.0001)     ;
(PID.TID 0000.0001) PTRACERS_EvPrRn =/* tracer conc. in Evap. & Rain */
(PID.TID 0000.0001)                 1.234567000000000E+05
(PID.TID 0000.0001)     ;
(PID.TID 0000.0001)  -----------------------------------
(PID.TID 0000.0001)  tracer number :  122
(PID.TID 0000.0001) PTRACERS_names = /* Tracer short name */
(PID.TID 0000.0001)               'p27'
(PID.TID 0000.0001)     ;
(PID.TID 0000.0001) PTRACERS_long_names = /* Tracer long name */
(PID.TID 0000.0001)               ''
(PID.TID 0000.0001)     ;
(PID.TID 0000.0001) PTRACERS_ioLabel = /* tracer IO Label */
(PID.TID 0000.0001)               '0w'
(PID.TID 0000.0001)     ;
(PID.TID 0000.0001) PTRACERS_advScheme = /* Advection Scheme */
(PID.TID 0000.0001)                      33
(PID.TID 0000.0001)     ;
(PID.TID 0000.0001) PTRACERS_SOM_Advection = /* tracer uses SOM advection scheme */
(PID.TID 0000.0001)                   F
(PID.TID 0000.0001)     ;
(PID.TID 0000.0001) PTRACERS_ImplVertAdv = /* implicit vert. advection flag */
(PID.TID 0000.0001)                   F
(PID.TID 0000.0001)     ;
(PID.TID 0000.0001) PTRACERS_diffKh = /* Laplacian Diffusivity */
(PID.TID 0000.0001)                 0.000000000000000E+00
(PID.TID 0000.0001)     ;
(PID.TID 0000.0001) PTRACERS_diffK4 = /* Biharmonic Diffusivity */
(PID.TID 0000.0001)                 0.000000000000000E+00
(PID.TID 0000.0001)     ;
(PID.TID 0000.0001) PTRACERS_diffKrNr = /* Vertical Diffusivity */
(PID.TID 0000.0001)    23 @  1.000000000000000E-05              /* K =  1: 23 */
(PID.TID 0000.0001)     ;
(PID.TID 0000.0001) PTRACERS_useGMRedi = /* apply GM-Redi */
(PID.TID 0000.0001)                   T
(PID.TID 0000.0001)     ;
(PID.TID 0000.0001) PTRACERS_useDWNSLP = /* apply DOWN-SLOPE Flow */
(PID.TID 0000.0001)                   F
(PID.TID 0000.0001)     ;
(PID.TID 0000.0001) PTRACERS_useKPP = /* apply KPP scheme */
(PID.TID 0000.0001)                   T
(PID.TID 0000.0001)     ;
(PID.TID 0000.0001) PTRACERS_ref = /* Reference vertical profile */
(PID.TID 0000.0001)    23 @  0.000000000000000E+00              /* K =  1: 23 */
(PID.TID 0000.0001)     ;
(PID.TID 0000.0001) PTRACERS_EvPrRn =/* tracer conc. in Evap. & Rain */
(PID.TID 0000.0001)                 1.234567000000000E+05
(PID.TID 0000.0001)     ;
(PID.TID 0000.0001)  -----------------------------------
(PID.TID 0000.0001)  tracer number :  123
(PID.TID 0000.0001) PTRACERS_names = /* Tracer short name */
(PID.TID 0000.0001)               'p28'
(PID.TID 0000.0001)     ;
(PID.TID 0000.0001) PTRACERS_long_names = /* Tracer long name */
(PID.TID 0000.0001)               ''
(PID.TID 0000.0001)     ;
(PID.TID 0000.0001) PTRACERS_ioLabel = /* tracer IO Label */
(PID.TID 0000.0001)               '0x'
(PID.TID 0000.0001)     ;
(PID.TID 0000.0001) PTRACERS_advScheme = /* Advection Scheme */
(PID.TID 0000.0001)                      33
(PID.TID 0000.0001)     ;
(PID.TID 0000.0001) PTRACERS_SOM_Advection = /* tracer uses SOM advection scheme */
(PID.TID 0000.0001)                   F
(PID.TID 0000.0001)     ;
(PID.TID 0000.0001) PTRACERS_ImplVertAdv = /* implicit vert. advection flag */
(PID.TID 0000.0001)                   F
(PID.TID 0000.0001)     ;
(PID.TID 0000.0001) PTRACERS_diffKh = /* Laplacian Diffusivity */
(PID.TID 0000.0001)                 0.000000000000000E+00
(PID.TID 0000.0001)     ;
(PID.TID 0000.0001) PTRACERS_diffK4 = /* Biharmonic Diffusivity */
(PID.TID 0000.0001)                 0.000000000000000E+00
(PID.TID 0000.0001)     ;
(PID.TID 0000.0001) PTRACERS_diffKrNr = /* Vertical Diffusivity */
(PID.TID 0000.0001)    23 @  1.000000000000000E-05              /* K =  1: 23 */
(PID.TID 0000.0001)     ;
(PID.TID 0000.0001) PTRACERS_useGMRedi = /* apply GM-Redi */
(PID.TID 0000.0001)                   T
(PID.TID 0000.0001)     ;
(PID.TID 0000.0001) PTRACERS_useDWNSLP = /* apply DOWN-SLOPE Flow */
(PID.TID 0000.0001)                   F
(PID.TID 0000.0001)     ;
(PID.TID 0000.0001) PTRACERS_useKPP = /* apply KPP scheme */
(PID.TID 0000.0001)                   T
(PID.TID 0000.0001)     ;
(PID.TID 0000.0001) PTRACERS_ref = /* Reference vertical profile */
(PID.TID 0000.0001)    23 @  0.000000000000000E+00              /* K =  1: 23 */
(PID.TID 0000.0001)     ;
(PID.TID 0000.0001) PTRACERS_EvPrRn =/* tracer conc. in Evap. & Rain */
(PID.TID 0000.0001)                 1.234567000000000E+05
(PID.TID 0000.0001)     ;
(PID.TID 0000.0001)  -----------------------------------
(PID.TID 0000.0001)  tracer number :  124
(PID.TID 0000.0001) PTRACERS_names = /* Tracer short name */
(PID.TID 0000.0001)               'p29'
(PID.TID 0000.0001)     ;
(PID.TID 0000.0001) PTRACERS_long_names = /* Tracer long name */
(PID.TID 0000.0001)               ''
(PID.TID 0000.0001)     ;
(PID.TID 0000.0001) PTRACERS_ioLabel = /* tracer IO Label */
(PID.TID 0000.0001)               '0y'
(PID.TID 0000.0001)     ;
(PID.TID 0000.0001) PTRACERS_advScheme = /* Advection Scheme */
(PID.TID 0000.0001)                      33
(PID.TID 0000.0001)     ;
(PID.TID 0000.0001) PTRACERS_SOM_Advection = /* tracer uses SOM advection scheme */
(PID.TID 0000.0001)                   F
(PID.TID 0000.0001)     ;
(PID.TID 0000.0001) PTRACERS_ImplVertAdv = /* implicit vert. advection flag */
(PID.TID 0000.0001)                   F
(PID.TID 0000.0001)     ;
(PID.TID 0000.0001) PTRACERS_diffKh = /* Laplacian Diffusivity */
(PID.TID 0000.0001)                 0.000000000000000E+00
(PID.TID 0000.0001)     ;
(PID.TID 0000.0001) PTRACERS_diffK4 = /* Biharmonic Diffusivity */
(PID.TID 0000.0001)                 0.000000000000000E+00
(PID.TID 0000.0001)     ;
(PID.TID 0000.0001) PTRACERS_diffKrNr = /* Vertical Diffusivity */
(PID.TID 0000.0001)    23 @  1.000000000000000E-05              /* K =  1: 23 */
(PID.TID 0000.0001)     ;
(PID.TID 0000.0001) PTRACERS_useGMRedi = /* apply GM-Redi */
(PID.TID 0000.0001)                   T
(PID.TID 0000.0001)     ;
(PID.TID 0000.0001) PTRACERS_useDWNSLP = /* apply DOWN-SLOPE Flow */
(PID.TID 0000.0001)                   F
(PID.TID 0000.0001)     ;
(PID.TID 0000.0001) PTRACERS_useKPP = /* apply KPP scheme */
(PID.TID 0000.0001)                   T
(PID.TID 0000.0001)     ;
(PID.TID 0000.0001) PTRACERS_ref = /* Reference vertical profile */
(PID.TID 0000.0001)    23 @  0.000000000000000E+00              /* K =  1: 23 */
(PID.TID 0000.0001)     ;
(PID.TID 0000.0001) PTRACERS_EvPrRn =/* tracer conc. in Evap. & Rain */
(PID.TID 0000.0001)                 1.234567000000000E+05
(PID.TID 0000.0001)     ;
(PID.TID 0000.0001)  -----------------------------------
(PID.TID 0000.0001)  tracer number :  125
(PID.TID 0000.0001) PTRACERS_names = /* Tracer short name */
(PID.TID 0000.0001)               'p30'
(PID.TID 0000.0001)     ;
(PID.TID 0000.0001) PTRACERS_long_names = /* Tracer long name */
(PID.TID 0000.0001)               ''
(PID.TID 0000.0001)     ;
(PID.TID 0000.0001) PTRACERS_ioLabel = /* tracer IO Label */
(PID.TID 0000.0001)               '0z'
(PID.TID 0000.0001)     ;
(PID.TID 0000.0001) PTRACERS_advScheme = /* Advection Scheme */
(PID.TID 0000.0001)                      33
(PID.TID 0000.0001)     ;
(PID.TID 0000.0001) PTRACERS_SOM_Advection = /* tracer uses SOM advection scheme */
(PID.TID 0000.0001)                   F
(PID.TID 0000.0001)     ;
(PID.TID 0000.0001) PTRACERS_ImplVertAdv = /* implicit vert. advection flag */
(PID.TID 0000.0001)                   F
(PID.TID 0000.0001)     ;
(PID.TID 0000.0001) PTRACERS_diffKh = /* Laplacian Diffusivity */
(PID.TID 0000.0001)                 0.000000000000000E+00
(PID.TID 0000.0001)     ;
(PID.TID 0000.0001) PTRACERS_diffK4 = /* Biharmonic Diffusivity */
(PID.TID 0000.0001)                 0.000000000000000E+00
(PID.TID 0000.0001)     ;
(PID.TID 0000.0001) PTRACERS_diffKrNr = /* Vertical Diffusivity */
(PID.TID 0000.0001)    23 @  1.000000000000000E-05              /* K =  1: 23 */
(PID.TID 0000.0001)     ;
(PID.TID 0000.0001) PTRACERS_useGMRedi = /* apply GM-Redi */
(PID.TID 0000.0001)                   T
(PID.TID 0000.0001)     ;
(PID.TID 0000.0001) PTRACERS_useDWNSLP = /* apply DOWN-SLOPE Flow */
(PID.TID 0000.0001)                   F
(PID.TID 0000.0001)     ;
(PID.TID 0000.0001) PTRACERS_useKPP = /* apply KPP scheme */
(PID.TID 0000.0001)                   T
(PID.TID 0000.0001)     ;
(PID.TID 0000.0001) PTRACERS_ref = /* Reference vertical profile */
(PID.TID 0000.0001)    23 @  0.000000000000000E+00              /* K =  1: 23 */
(PID.TID 0000.0001)     ;
(PID.TID 0000.0001) PTRACERS_EvPrRn =/* tracer conc. in Evap. & Rain */
(PID.TID 0000.0001)                 1.234567000000000E+05
(PID.TID 0000.0001)     ;
(PID.TID 0000.0001)  -----------------------------------
(PID.TID 0000.0001)  tracer number :  126
(PID.TID 0000.0001) PTRACERS_names = /* Tracer short name */
(PID.TID 0000.0001)               'p31'
(PID.TID 0000.0001)     ;
(PID.TID 0000.0001) PTRACERS_long_names = /* Tracer long name */
(PID.TID 0000.0001)               ''
(PID.TID 0000.0001)     ;
(PID.TID 0000.0001) PTRACERS_ioLabel = /* tracer IO Label */
(PID.TID 0000.0001)               '0A'
(PID.TID 0000.0001)     ;
(PID.TID 0000.0001) PTRACERS_advScheme = /* Advection Scheme */
(PID.TID 0000.0001)                      33
(PID.TID 0000.0001)     ;
(PID.TID 0000.0001) PTRACERS_SOM_Advection = /* tracer uses SOM advection scheme */
(PID.TID 0000.0001)                   F
(PID.TID 0000.0001)     ;
(PID.TID 0000.0001) PTRACERS_ImplVertAdv = /* implicit vert. advection flag */
(PID.TID 0000.0001)                   F
(PID.TID 0000.0001)     ;
(PID.TID 0000.0001) PTRACERS_diffKh = /* Laplacian Diffusivity */
(PID.TID 0000.0001)                 0.000000000000000E+00
(PID.TID 0000.0001)     ;
(PID.TID 0000.0001) PTRACERS_diffK4 = /* Biharmonic Diffusivity */
(PID.TID 0000.0001)                 0.000000000000000E+00
(PID.TID 0000.0001)     ;
(PID.TID 0000.0001) PTRACERS_diffKrNr = /* Vertical Diffusivity */
(PID.TID 0000.0001)    23 @  1.000000000000000E-05              /* K =  1: 23 */
(PID.TID 0000.0001)     ;
(PID.TID 0000.0001) PTRACERS_useGMRedi = /* apply GM-Redi */
(PID.TID 0000.0001)                   T
(PID.TID 0000.0001)     ;
(PID.TID 0000.0001) PTRACERS_useDWNSLP = /* apply DOWN-SLOPE Flow */
(PID.TID 0000.0001)                   F
(PID.TID 0000.0001)     ;
(PID.TID 0000.0001) PTRACERS_useKPP = /* apply KPP scheme */
(PID.TID 0000.0001)                   T
(PID.TID 0000.0001)     ;
(PID.TID 0000.0001) PTRACERS_ref = /* Reference vertical profile */
(PID.TID 0000.0001)    23 @  0.000000000000000E+00              /* K =  1: 23 */
(PID.TID 0000.0001)     ;
(PID.TID 0000.0001) PTRACERS_EvPrRn =/* tracer conc. in Evap. & Rain */
(PID.TID 0000.0001)                 1.234567000000000E+05
(PID.TID 0000.0001)     ;
(PID.TID 0000.0001)  -----------------------------------
(PID.TID 0000.0001)  tracer number :  127
(PID.TID 0000.0001) PTRACERS_names = /* Tracer short name */
(PID.TID 0000.0001)               'p32'
(PID.TID 0000.0001)     ;
(PID.TID 0000.0001) PTRACERS_long_names = /* Tracer long name */
(PID.TID 0000.0001)               ''
(PID.TID 0000.0001)     ;
(PID.TID 0000.0001) PTRACERS_ioLabel = /* tracer IO Label */
(PID.TID 0000.0001)               '0B'
(PID.TID 0000.0001)     ;
(PID.TID 0000.0001) PTRACERS_advScheme = /* Advection Scheme */
(PID.TID 0000.0001)                      33
(PID.TID 0000.0001)     ;
(PID.TID 0000.0001) PTRACERS_SOM_Advection = /* tracer uses SOM advection scheme */
(PID.TID 0000.0001)                   F
(PID.TID 0000.0001)     ;
(PID.TID 0000.0001) PTRACERS_ImplVertAdv = /* implicit vert. advection flag */
(PID.TID 0000.0001)                   F
(PID.TID 0000.0001)     ;
(PID.TID 0000.0001) PTRACERS_diffKh = /* Laplacian Diffusivity */
(PID.TID 0000.0001)                 0.000000000000000E+00
(PID.TID 0000.0001)     ;
(PID.TID 0000.0001) PTRACERS_diffK4 = /* Biharmonic Diffusivity */
(PID.TID 0000.0001)                 0.000000000000000E+00
(PID.TID 0000.0001)     ;
(PID.TID 0000.0001) PTRACERS_diffKrNr = /* Vertical Diffusivity */
(PID.TID 0000.0001)    23 @  1.000000000000000E-05              /* K =  1: 23 */
(PID.TID 0000.0001)     ;
(PID.TID 0000.0001) PTRACERS_useGMRedi = /* apply GM-Redi */
(PID.TID 0000.0001)                   T
(PID.TID 0000.0001)     ;
(PID.TID 0000.0001) PTRACERS_useDWNSLP = /* apply DOWN-SLOPE Flow */
(PID.TID 0000.0001)                   F
(PID.TID 0000.0001)     ;
(PID.TID 0000.0001) PTRACERS_useKPP = /* apply KPP scheme */
(PID.TID 0000.0001)                   T
(PID.TID 0000.0001)     ;
(PID.TID 0000.0001) PTRACERS_ref = /* Reference vertical profile */
(PID.TID 0000.0001)    23 @  0.000000000000000E+00              /* K =  1: 23 */
(PID.TID 0000.0001)     ;
(PID.TID 0000.0001) PTRACERS_EvPrRn =/* tracer conc. in Evap. & Rain */
(PID.TID 0000.0001)                 1.234567000000000E+05
(PID.TID 0000.0001)     ;
(PID.TID 0000.0001)  -----------------------------------
(PID.TID 0000.0001)  tracer number :  128
(PID.TID 0000.0001) PTRACERS_names = /* Tracer short name */
(PID.TID 0000.0001)               'p33'
(PID.TID 0000.0001)     ;
(PID.TID 0000.0001) PTRACERS_long_names = /* Tracer long name */
(PID.TID 0000.0001)               ''
(PID.TID 0000.0001)     ;
(PID.TID 0000.0001) PTRACERS_ioLabel = /* tracer IO Label */
(PID.TID 0000.0001)               '0C'
(PID.TID 0000.0001)     ;
(PID.TID 0000.0001) PTRACERS_advScheme = /* Advection Scheme */
(PID.TID 0000.0001)                      33
(PID.TID 0000.0001)     ;
(PID.TID 0000.0001) PTRACERS_SOM_Advection = /* tracer uses SOM advection scheme */
(PID.TID 0000.0001)                   F
(PID.TID 0000.0001)     ;
(PID.TID 0000.0001) PTRACERS_ImplVertAdv = /* implicit vert. advection flag */
(PID.TID 0000.0001)                   F
(PID.TID 0000.0001)     ;
(PID.TID 0000.0001) PTRACERS_diffKh = /* Laplacian Diffusivity */
(PID.TID 0000.0001)                 0.000000000000000E+00
(PID.TID 0000.0001)     ;
(PID.TID 0000.0001) PTRACERS_diffK4 = /* Biharmonic Diffusivity */
(PID.TID 0000.0001)                 0.000000000000000E+00
(PID.TID 0000.0001)     ;
(PID.TID 0000.0001) PTRACERS_diffKrNr = /* Vertical Diffusivity */
(PID.TID 0000.0001)    23 @  1.000000000000000E-05              /* K =  1: 23 */
(PID.TID 0000.0001)     ;
(PID.TID 0000.0001) PTRACERS_useGMRedi = /* apply GM-Redi */
(PID.TID 0000.0001)                   T
(PID.TID 0000.0001)     ;
(PID.TID 0000.0001) PTRACERS_useDWNSLP = /* apply DOWN-SLOPE Flow */
(PID.TID 0000.0001)                   F
(PID.TID 0000.0001)     ;
(PID.TID 0000.0001) PTRACERS_useKPP = /* apply KPP scheme */
(PID.TID 0000.0001)                   T
(PID.TID 0000.0001)     ;
(PID.TID 0000.0001) PTRACERS_ref = /* Reference vertical profile */
(PID.TID 0000.0001)    23 @  0.000000000000000E+00              /* K =  1: 23 */
(PID.TID 0000.0001)     ;
(PID.TID 0000.0001) PTRACERS_EvPrRn =/* tracer conc. in Evap. & Rain */
(PID.TID 0000.0001)                 1.234567000000000E+05
(PID.TID 0000.0001)     ;
(PID.TID 0000.0001)  -----------------------------------
(PID.TID 0000.0001)  tracer number :  129
(PID.TID 0000.0001) PTRACERS_names = /* Tracer short name */
(PID.TID 0000.0001)               'p34'
(PID.TID 0000.0001)     ;
(PID.TID 0000.0001) PTRACERS_long_names = /* Tracer long name */
(PID.TID 0000.0001)               ''
(PID.TID 0000.0001)     ;
(PID.TID 0000.0001) PTRACERS_ioLabel = /* tracer IO Label */
(PID.TID 0000.0001)               '0D'
(PID.TID 0000.0001)     ;
(PID.TID 0000.0001) PTRACERS_advScheme = /* Advection Scheme */
(PID.TID 0000.0001)                      33
(PID.TID 0000.0001)     ;
(PID.TID 0000.0001) PTRACERS_SOM_Advection = /* tracer uses SOM advection scheme */
(PID.TID 0000.0001)                   F
(PID.TID 0000.0001)     ;
(PID.TID 0000.0001) PTRACERS_ImplVertAdv = /* implicit vert. advection flag */
(PID.TID 0000.0001)                   F
(PID.TID 0000.0001)     ;
(PID.TID 0000.0001) PTRACERS_diffKh = /* Laplacian Diffusivity */
(PID.TID 0000.0001)                 0.000000000000000E+00
(PID.TID 0000.0001)     ;
(PID.TID 0000.0001) PTRACERS_diffK4 = /* Biharmonic Diffusivity */
(PID.TID 0000.0001)                 0.000000000000000E+00
(PID.TID 0000.0001)     ;
(PID.TID 0000.0001) PTRACERS_diffKrNr = /* Vertical Diffusivity */
(PID.TID 0000.0001)    23 @  1.000000000000000E-05              /* K =  1: 23 */
(PID.TID 0000.0001)     ;
(PID.TID 0000.0001) PTRACERS_useGMRedi = /* apply GM-Redi */
(PID.TID 0000.0001)                   T
(PID.TID 0000.0001)     ;
(PID.TID 0000.0001) PTRACERS_useDWNSLP = /* apply DOWN-SLOPE Flow */
(PID.TID 0000.0001)                   F
(PID.TID 0000.0001)     ;
(PID.TID 0000.0001) PTRACERS_useKPP = /* apply KPP scheme */
(PID.TID 0000.0001)                   T
(PID.TID 0000.0001)     ;
(PID.TID 0000.0001) PTRACERS_ref = /* Reference vertical profile */
(PID.TID 0000.0001)    23 @  0.000000000000000E+00              /* K =  1: 23 */
(PID.TID 0000.0001)     ;
(PID.TID 0000.0001) PTRACERS_EvPrRn =/* tracer conc. in Evap. & Rain */
(PID.TID 0000.0001)                 1.234567000000000E+05
(PID.TID 0000.0001)     ;
(PID.TID 0000.0001)  -----------------------------------
(PID.TID 0000.0001)  tracer number :  130
(PID.TID 0000.0001) PTRACERS_names = /* Tracer short name */
(PID.TID 0000.0001)               'p35'
(PID.TID 0000.0001)     ;
(PID.TID 0000.0001) PTRACERS_long_names = /* Tracer long name */
(PID.TID 0000.0001)               ''
(PID.TID 0000.0001)     ;
(PID.TID 0000.0001) PTRACERS_ioLabel = /* tracer IO Label */
(PID.TID 0000.0001)               '0E'
(PID.TID 0000.0001)     ;
(PID.TID 0000.0001) PTRACERS_advScheme = /* Advection Scheme */
(PID.TID 0000.0001)                      33
(PID.TID 0000.0001)     ;
(PID.TID 0000.0001) PTRACERS_SOM_Advection = /* tracer uses SOM advection scheme */
(PID.TID 0000.0001)                   F
(PID.TID 0000.0001)     ;
(PID.TID 0000.0001) PTRACERS_ImplVertAdv = /* implicit vert. advection flag */
(PID.TID 0000.0001)                   F
(PID.TID 0000.0001)     ;
(PID.TID 0000.0001) PTRACERS_diffKh = /* Laplacian Diffusivity */
(PID.TID 0000.0001)                 0.000000000000000E+00
(PID.TID 0000.0001)     ;
(PID.TID 0000.0001) PTRACERS_diffK4 = /* Biharmonic Diffusivity */
(PID.TID 0000.0001)                 0.000000000000000E+00
(PID.TID 0000.0001)     ;
(PID.TID 0000.0001) PTRACERS_diffKrNr = /* Vertical Diffusivity */
(PID.TID 0000.0001)    23 @  1.000000000000000E-05              /* K =  1: 23 */
(PID.TID 0000.0001)     ;
(PID.TID 0000.0001) PTRACERS_useGMRedi = /* apply GM-Redi */
(PID.TID 0000.0001)                   T
(PID.TID 0000.0001)     ;
(PID.TID 0000.0001) PTRACERS_useDWNSLP = /* apply DOWN-SLOPE Flow */
(PID.TID 0000.0001)                   F
(PID.TID 0000.0001)     ;
(PID.TID 0000.0001) PTRACERS_useKPP = /* apply KPP scheme */
(PID.TID 0000.0001)                   T
(PID.TID 0000.0001)     ;
(PID.TID 0000.0001) PTRACERS_ref = /* Reference vertical profile */
(PID.TID 0000.0001)    23 @  0.000000000000000E+00              /* K =  1: 23 */
(PID.TID 0000.0001)     ;
(PID.TID 0000.0001) PTRACERS_EvPrRn =/* tracer conc. in Evap. & Rain */
(PID.TID 0000.0001)                 1.234567000000000E+05
(PID.TID 0000.0001)     ;
(PID.TID 0000.0001)  -----------------------------------
(PID.TID 0000.0001)  tracer number :  131
(PID.TID 0000.0001) PTRACERS_names = /* Tracer short name */
(PID.TID 0000.0001)               'p36'
(PID.TID 0000.0001)     ;
(PID.TID 0000.0001) PTRACERS_long_names = /* Tracer long name */
(PID.TID 0000.0001)               ''
(PID.TID 0000.0001)     ;
(PID.TID 0000.0001) PTRACERS_ioLabel = /* tracer IO Label */
(PID.TID 0000.0001)               '0F'
(PID.TID 0000.0001)     ;
(PID.TID 0000.0001) PTRACERS_advScheme = /* Advection Scheme */
(PID.TID 0000.0001)                      33
(PID.TID 0000.0001)     ;
(PID.TID 0000.0001) PTRACERS_SOM_Advection = /* tracer uses SOM advection scheme */
(PID.TID 0000.0001)                   F
(PID.TID 0000.0001)     ;
(PID.TID 0000.0001) PTRACERS_ImplVertAdv = /* implicit vert. advection flag */
(PID.TID 0000.0001)                   F
(PID.TID 0000.0001)     ;
(PID.TID 0000.0001) PTRACERS_diffKh = /* Laplacian Diffusivity */
(PID.TID 0000.0001)                 0.000000000000000E+00
(PID.TID 0000.0001)     ;
(PID.TID 0000.0001) PTRACERS_diffK4 = /* Biharmonic Diffusivity */
(PID.TID 0000.0001)                 0.000000000000000E+00
(PID.TID 0000.0001)     ;
(PID.TID 0000.0001) PTRACERS_diffKrNr = /* Vertical Diffusivity */
(PID.TID 0000.0001)    23 @  1.000000000000000E-05              /* K =  1: 23 */
(PID.TID 0000.0001)     ;
(PID.TID 0000.0001) PTRACERS_useGMRedi = /* apply GM-Redi */
(PID.TID 0000.0001)                   T
(PID.TID 0000.0001)     ;
(PID.TID 0000.0001) PTRACERS_useDWNSLP = /* apply DOWN-SLOPE Flow */
(PID.TID 0000.0001)                   F
(PID.TID 0000.0001)     ;
(PID.TID 0000.0001) PTRACERS_useKPP = /* apply KPP scheme */
(PID.TID 0000.0001)                   T
(PID.TID 0000.0001)     ;
(PID.TID 0000.0001) PTRACERS_ref = /* Reference vertical profile */
(PID.TID 0000.0001)    23 @  0.000000000000000E+00              /* K =  1: 23 */
(PID.TID 0000.0001)     ;
(PID.TID 0000.0001) PTRACERS_EvPrRn =/* tracer conc. in Evap. & Rain */
(PID.TID 0000.0001)                 1.234567000000000E+05
(PID.TID 0000.0001)     ;
(PID.TID 0000.0001)  -----------------------------------
(PID.TID 0000.0001)  tracer number :  132
(PID.TID 0000.0001) PTRACERS_names = /* Tracer short name */
(PID.TID 0000.0001)               'p37'
(PID.TID 0000.0001)     ;
(PID.TID 0000.0001) PTRACERS_long_names = /* Tracer long name */
(PID.TID 0000.0001)               ''
(PID.TID 0000.0001)     ;
(PID.TID 0000.0001) PTRACERS_ioLabel = /* tracer IO Label */
(PID.TID 0000.0001)               '0G'
(PID.TID 0000.0001)     ;
(PID.TID 0000.0001) PTRACERS_advScheme = /* Advection Scheme */
(PID.TID 0000.0001)                      33
(PID.TID 0000.0001)     ;
(PID.TID 0000.0001) PTRACERS_SOM_Advection = /* tracer uses SOM advection scheme */
(PID.TID 0000.0001)                   F
(PID.TID 0000.0001)     ;
(PID.TID 0000.0001) PTRACERS_ImplVertAdv = /* implicit vert. advection flag */
(PID.TID 0000.0001)                   F
(PID.TID 0000.0001)     ;
(PID.TID 0000.0001) PTRACERS_diffKh = /* Laplacian Diffusivity */
(PID.TID 0000.0001)                 0.000000000000000E+00
(PID.TID 0000.0001)     ;
(PID.TID 0000.0001) PTRACERS_diffK4 = /* Biharmonic Diffusivity */
(PID.TID 0000.0001)                 0.000000000000000E+00
(PID.TID 0000.0001)     ;
(PID.TID 0000.0001) PTRACERS_diffKrNr = /* Vertical Diffusivity */
(PID.TID 0000.0001)    23 @  1.000000000000000E-05              /* K =  1: 23 */
(PID.TID 0000.0001)     ;
(PID.TID 0000.0001) PTRACERS_useGMRedi = /* apply GM-Redi */
(PID.TID 0000.0001)                   T
(PID.TID 0000.0001)     ;
(PID.TID 0000.0001) PTRACERS_useDWNSLP = /* apply DOWN-SLOPE Flow */
(PID.TID 0000.0001)                   F
(PID.TID 0000.0001)     ;
(PID.TID 0000.0001) PTRACERS_useKPP = /* apply KPP scheme */
(PID.TID 0000.0001)                   T
(PID.TID 0000.0001)     ;
(PID.TID 0000.0001) PTRACERS_ref = /* Reference vertical profile */
(PID.TID 0000.0001)    23 @  0.000000000000000E+00              /* K =  1: 23 */
(PID.TID 0000.0001)     ;
(PID.TID 0000.0001) PTRACERS_EvPrRn =/* tracer conc. in Evap. & Rain */
(PID.TID 0000.0001)                 1.234567000000000E+05
(PID.TID 0000.0001)     ;
(PID.TID 0000.0001)  -----------------------------------
(PID.TID 0000.0001)  tracer number :  133
(PID.TID 0000.0001) PTRACERS_names = /* Tracer short name */
(PID.TID 0000.0001)               'p38'
(PID.TID 0000.0001)     ;
(PID.TID 0000.0001) PTRACERS_long_names = /* Tracer long name */
(PID.TID 0000.0001)               ''
(PID.TID 0000.0001)     ;
(PID.TID 0000.0001) PTRACERS_ioLabel = /* tracer IO Label */
(PID.TID 0000.0001)               '0H'
(PID.TID 0000.0001)     ;
(PID.TID 0000.0001) PTRACERS_advScheme = /* Advection Scheme */
(PID.TID 0000.0001)                      33
(PID.TID 0000.0001)     ;
(PID.TID 0000.0001) PTRACERS_SOM_Advection = /* tracer uses SOM advection scheme */
(PID.TID 0000.0001)                   F
(PID.TID 0000.0001)     ;
(PID.TID 0000.0001) PTRACERS_ImplVertAdv = /* implicit vert. advection flag */
(PID.TID 0000.0001)                   F
(PID.TID 0000.0001)     ;
(PID.TID 0000.0001) PTRACERS_diffKh = /* Laplacian Diffusivity */
(PID.TID 0000.0001)                 0.000000000000000E+00
(PID.TID 0000.0001)     ;
(PID.TID 0000.0001) PTRACERS_diffK4 = /* Biharmonic Diffusivity */
(PID.TID 0000.0001)                 0.000000000000000E+00
(PID.TID 0000.0001)     ;
(PID.TID 0000.0001) PTRACERS_diffKrNr = /* Vertical Diffusivity */
(PID.TID 0000.0001)    23 @  1.000000000000000E-05              /* K =  1: 23 */
(PID.TID 0000.0001)     ;
(PID.TID 0000.0001) PTRACERS_useGMRedi = /* apply GM-Redi */
(PID.TID 0000.0001)                   T
(PID.TID 0000.0001)     ;
(PID.TID 0000.0001) PTRACERS_useDWNSLP = /* apply DOWN-SLOPE Flow */
(PID.TID 0000.0001)                   F
(PID.TID 0000.0001)     ;
(PID.TID 0000.0001) PTRACERS_useKPP = /* apply KPP scheme */
(PID.TID 0000.0001)                   T
(PID.TID 0000.0001)     ;
(PID.TID 0000.0001) PTRACERS_ref = /* Reference vertical profile */
(PID.TID 0000.0001)    23 @  0.000000000000000E+00              /* K =  1: 23 */
(PID.TID 0000.0001)     ;
(PID.TID 0000.0001) PTRACERS_EvPrRn =/* tracer conc. in Evap. & Rain */
(PID.TID 0000.0001)                 1.234567000000000E+05
(PID.TID 0000.0001)     ;
(PID.TID 0000.0001)  -----------------------------------
(PID.TID 0000.0001)  tracer number :  134
(PID.TID 0000.0001) PTRACERS_names = /* Tracer short name */
(PID.TID 0000.0001)               'si01'
(PID.TID 0000.0001)     ;
(PID.TID 0000.0001) PTRACERS_long_names = /* Tracer long name */
(PID.TID 0000.0001)               ''
(PID.TID 0000.0001)     ;
(PID.TID 0000.0001) PTRACERS_ioLabel = /* tracer IO Label */
(PID.TID 0000.0001)               '0I'
(PID.TID 0000.0001)     ;
(PID.TID 0000.0001) PTRACERS_advScheme = /* Advection Scheme */
(PID.TID 0000.0001)                      33
(PID.TID 0000.0001)     ;
(PID.TID 0000.0001) PTRACERS_SOM_Advection = /* tracer uses SOM advection scheme */
(PID.TID 0000.0001)                   F
(PID.TID 0000.0001)     ;
(PID.TID 0000.0001) PTRACERS_ImplVertAdv = /* implicit vert. advection flag */
(PID.TID 0000.0001)                   F
(PID.TID 0000.0001)     ;
(PID.TID 0000.0001) PTRACERS_diffKh = /* Laplacian Diffusivity */
(PID.TID 0000.0001)                 0.000000000000000E+00
(PID.TID 0000.0001)     ;
(PID.TID 0000.0001) PTRACERS_diffK4 = /* Biharmonic Diffusivity */
(PID.TID 0000.0001)                 0.000000000000000E+00
(PID.TID 0000.0001)     ;
(PID.TID 0000.0001) PTRACERS_diffKrNr = /* Vertical Diffusivity */
(PID.TID 0000.0001)    23 @  1.000000000000000E-05              /* K =  1: 23 */
(PID.TID 0000.0001)     ;
(PID.TID 0000.0001) PTRACERS_useGMRedi = /* apply GM-Redi */
(PID.TID 0000.0001)                   T
(PID.TID 0000.0001)     ;
(PID.TID 0000.0001) PTRACERS_useDWNSLP = /* apply DOWN-SLOPE Flow */
(PID.TID 0000.0001)                   F
(PID.TID 0000.0001)     ;
(PID.TID 0000.0001) PTRACERS_useKPP = /* apply KPP scheme */
(PID.TID 0000.0001)                   T
(PID.TID 0000.0001)     ;
(PID.TID 0000.0001) PTRACERS_ref = /* Reference vertical profile */
(PID.TID 0000.0001)    23 @  0.000000000000000E+00              /* K =  1: 23 */
(PID.TID 0000.0001)     ;
(PID.TID 0000.0001) PTRACERS_EvPrRn =/* tracer conc. in Evap. & Rain */
(PID.TID 0000.0001)                 1.234567000000000E+05
(PID.TID 0000.0001)     ;
(PID.TID 0000.0001)  -----------------------------------
(PID.TID 0000.0001)  tracer number :  135
(PID.TID 0000.0001) PTRACERS_names = /* Tracer short name */
(PID.TID 0000.0001)               'si02'
(PID.TID 0000.0001)     ;
(PID.TID 0000.0001) PTRACERS_long_names = /* Tracer long name */
(PID.TID 0000.0001)               ''
(PID.TID 0000.0001)     ;
(PID.TID 0000.0001) PTRACERS_ioLabel = /* tracer IO Label */
(PID.TID 0000.0001)               '0J'
(PID.TID 0000.0001)     ;
(PID.TID 0000.0001) PTRACERS_advScheme = /* Advection Scheme */
(PID.TID 0000.0001)                      33
(PID.TID 0000.0001)     ;
(PID.TID 0000.0001) PTRACERS_SOM_Advection = /* tracer uses SOM advection scheme */
(PID.TID 0000.0001)                   F
(PID.TID 0000.0001)     ;
(PID.TID 0000.0001) PTRACERS_ImplVertAdv = /* implicit vert. advection flag */
(PID.TID 0000.0001)                   F
(PID.TID 0000.0001)     ;
(PID.TID 0000.0001) PTRACERS_diffKh = /* Laplacian Diffusivity */
(PID.TID 0000.0001)                 0.000000000000000E+00
(PID.TID 0000.0001)     ;
(PID.TID 0000.0001) PTRACERS_diffK4 = /* Biharmonic Diffusivity */
(PID.TID 0000.0001)                 0.000000000000000E+00
(PID.TID 0000.0001)     ;
(PID.TID 0000.0001) PTRACERS_diffKrNr = /* Vertical Diffusivity */
(PID.TID 0000.0001)    23 @  1.000000000000000E-05              /* K =  1: 23 */
(PID.TID 0000.0001)     ;
(PID.TID 0000.0001) PTRACERS_useGMRedi = /* apply GM-Redi */
(PID.TID 0000.0001)                   T
(PID.TID 0000.0001)     ;
(PID.TID 0000.0001) PTRACERS_useDWNSLP = /* apply DOWN-SLOPE Flow */
(PID.TID 0000.0001)                   F
(PID.TID 0000.0001)     ;
(PID.TID 0000.0001) PTRACERS_useKPP = /* apply KPP scheme */
(PID.TID 0000.0001)                   T
(PID.TID 0000.0001)     ;
(PID.TID 0000.0001) PTRACERS_ref = /* Reference vertical profile */
(PID.TID 0000.0001)    23 @  0.000000000000000E+00              /* K =  1: 23 */
(PID.TID 0000.0001)     ;
(PID.TID 0000.0001) PTRACERS_EvPrRn =/* tracer conc. in Evap. & Rain */
(PID.TID 0000.0001)                 1.234567000000000E+05
(PID.TID 0000.0001)     ;
(PID.TID 0000.0001)  -----------------------------------
(PID.TID 0000.0001)  tracer number :  136
(PID.TID 0000.0001) PTRACERS_names = /* Tracer short name */
(PID.TID 0000.0001)               'si03'
(PID.TID 0000.0001)     ;
(PID.TID 0000.0001) PTRACERS_long_names = /* Tracer long name */
(PID.TID 0000.0001)               ''
(PID.TID 0000.0001)     ;
(PID.TID 0000.0001) PTRACERS_ioLabel = /* tracer IO Label */
(PID.TID 0000.0001)               '0K'
(PID.TID 0000.0001)     ;
(PID.TID 0000.0001) PTRACERS_advScheme = /* Advection Scheme */
(PID.TID 0000.0001)                      33
(PID.TID 0000.0001)     ;
(PID.TID 0000.0001) PTRACERS_SOM_Advection = /* tracer uses SOM advection scheme */
(PID.TID 0000.0001)                   F
(PID.TID 0000.0001)     ;
(PID.TID 0000.0001) PTRACERS_ImplVertAdv = /* implicit vert. advection flag */
(PID.TID 0000.0001)                   F
(PID.TID 0000.0001)     ;
(PID.TID 0000.0001) PTRACERS_diffKh = /* Laplacian Diffusivity */
(PID.TID 0000.0001)                 0.000000000000000E+00
(PID.TID 0000.0001)     ;
(PID.TID 0000.0001) PTRACERS_diffK4 = /* Biharmonic Diffusivity */
(PID.TID 0000.0001)                 0.000000000000000E+00
(PID.TID 0000.0001)     ;
(PID.TID 0000.0001) PTRACERS_diffKrNr = /* Vertical Diffusivity */
(PID.TID 0000.0001)    23 @  1.000000000000000E-05              /* K =  1: 23 */
(PID.TID 0000.0001)     ;
(PID.TID 0000.0001) PTRACERS_useGMRedi = /* apply GM-Redi */
(PID.TID 0000.0001)                   T
(PID.TID 0000.0001)     ;
(PID.TID 0000.0001) PTRACERS_useDWNSLP = /* apply DOWN-SLOPE Flow */
(PID.TID 0000.0001)                   F
(PID.TID 0000.0001)     ;
(PID.TID 0000.0001) PTRACERS_useKPP = /* apply KPP scheme */
(PID.TID 0000.0001)                   T
(PID.TID 0000.0001)     ;
(PID.TID 0000.0001) PTRACERS_ref = /* Reference vertical profile */
(PID.TID 0000.0001)    23 @  0.000000000000000E+00              /* K =  1: 23 */
(PID.TID 0000.0001)     ;
(PID.TID 0000.0001) PTRACERS_EvPrRn =/* tracer conc. in Evap. & Rain */
(PID.TID 0000.0001)                 1.234567000000000E+05
(PID.TID 0000.0001)     ;
(PID.TID 0000.0001)  -----------------------------------
(PID.TID 0000.0001)  tracer number :  137
(PID.TID 0000.0001) PTRACERS_names = /* Tracer short name */
(PID.TID 0000.0001)               'si04'
(PID.TID 0000.0001)     ;
(PID.TID 0000.0001) PTRACERS_long_names = /* Tracer long name */
(PID.TID 0000.0001)               ''
(PID.TID 0000.0001)     ;
(PID.TID 0000.0001) PTRACERS_ioLabel = /* tracer IO Label */
(PID.TID 0000.0001)               '0L'
(PID.TID 0000.0001)     ;
(PID.TID 0000.0001) PTRACERS_advScheme = /* Advection Scheme */
(PID.TID 0000.0001)                      33
(PID.TID 0000.0001)     ;
(PID.TID 0000.0001) PTRACERS_SOM_Advection = /* tracer uses SOM advection scheme */
(PID.TID 0000.0001)                   F
(PID.TID 0000.0001)     ;
(PID.TID 0000.0001) PTRACERS_ImplVertAdv = /* implicit vert. advection flag */
(PID.TID 0000.0001)                   F
(PID.TID 0000.0001)     ;
(PID.TID 0000.0001) PTRACERS_diffKh = /* Laplacian Diffusivity */
(PID.TID 0000.0001)                 0.000000000000000E+00
(PID.TID 0000.0001)     ;
(PID.TID 0000.0001) PTRACERS_diffK4 = /* Biharmonic Diffusivity */
(PID.TID 0000.0001)                 0.000000000000000E+00
(PID.TID 0000.0001)     ;
(PID.TID 0000.0001) PTRACERS_diffKrNr = /* Vertical Diffusivity */
(PID.TID 0000.0001)    23 @  1.000000000000000E-05              /* K =  1: 23 */
(PID.TID 0000.0001)     ;
(PID.TID 0000.0001) PTRACERS_useGMRedi = /* apply GM-Redi */
(PID.TID 0000.0001)                   T
(PID.TID 0000.0001)     ;
(PID.TID 0000.0001) PTRACERS_useDWNSLP = /* apply DOWN-SLOPE Flow */
(PID.TID 0000.0001)                   F
(PID.TID 0000.0001)     ;
(PID.TID 0000.0001) PTRACERS_useKPP = /* apply KPP scheme */
(PID.TID 0000.0001)                   T
(PID.TID 0000.0001)     ;
(PID.TID 0000.0001) PTRACERS_ref = /* Reference vertical profile */
(PID.TID 0000.0001)    23 @  0.000000000000000E+00              /* K =  1: 23 */
(PID.TID 0000.0001)     ;
(PID.TID 0000.0001) PTRACERS_EvPrRn =/* tracer conc. in Evap. & Rain */
(PID.TID 0000.0001)                 1.234567000000000E+05
(PID.TID 0000.0001)     ;
(PID.TID 0000.0001)  -----------------------------------
(PID.TID 0000.0001)  tracer number :  138
(PID.TID 0000.0001) PTRACERS_names = /* Tracer short name */
(PID.TID 0000.0001)               'si05'
(PID.TID 0000.0001)     ;
(PID.TID 0000.0001) PTRACERS_long_names = /* Tracer long name */
(PID.TID 0000.0001)               ''
(PID.TID 0000.0001)     ;
(PID.TID 0000.0001) PTRACERS_ioLabel = /* tracer IO Label */
(PID.TID 0000.0001)               '0M'
(PID.TID 0000.0001)     ;
(PID.TID 0000.0001) PTRACERS_advScheme = /* Advection Scheme */
(PID.TID 0000.0001)                      33
(PID.TID 0000.0001)     ;
(PID.TID 0000.0001) PTRACERS_SOM_Advection = /* tracer uses SOM advection scheme */
(PID.TID 0000.0001)                   F
(PID.TID 0000.0001)     ;
(PID.TID 0000.0001) PTRACERS_ImplVertAdv = /* implicit vert. advection flag */
(PID.TID 0000.0001)                   F
(PID.TID 0000.0001)     ;
(PID.TID 0000.0001) PTRACERS_diffKh = /* Laplacian Diffusivity */
(PID.TID 0000.0001)                 0.000000000000000E+00
(PID.TID 0000.0001)     ;
(PID.TID 0000.0001) PTRACERS_diffK4 = /* Biharmonic Diffusivity */
(PID.TID 0000.0001)                 0.000000000000000E+00
(PID.TID 0000.0001)     ;
(PID.TID 0000.0001) PTRACERS_diffKrNr = /* Vertical Diffusivity */
(PID.TID 0000.0001)    23 @  1.000000000000000E-05              /* K =  1: 23 */
(PID.TID 0000.0001)     ;
(PID.TID 0000.0001) PTRACERS_useGMRedi = /* apply GM-Redi */
(PID.TID 0000.0001)                   T
(PID.TID 0000.0001)     ;
(PID.TID 0000.0001) PTRACERS_useDWNSLP = /* apply DOWN-SLOPE Flow */
(PID.TID 0000.0001)                   F
(PID.TID 0000.0001)     ;
(PID.TID 0000.0001) PTRACERS_useKPP = /* apply KPP scheme */
(PID.TID 0000.0001)                   T
(PID.TID 0000.0001)     ;
(PID.TID 0000.0001) PTRACERS_ref = /* Reference vertical profile */
(PID.TID 0000.0001)    23 @  0.000000000000000E+00              /* K =  1: 23 */
(PID.TID 0000.0001)     ;
(PID.TID 0000.0001) PTRACERS_EvPrRn =/* tracer conc. in Evap. & Rain */
(PID.TID 0000.0001)                 1.234567000000000E+05
(PID.TID 0000.0001)     ;
(PID.TID 0000.0001)  -----------------------------------
(PID.TID 0000.0001)  tracer number :  139
(PID.TID 0000.0001) PTRACERS_names = /* Tracer short name */
(PID.TID 0000.0001)               'si06'
(PID.TID 0000.0001)     ;
(PID.TID 0000.0001) PTRACERS_long_names = /* Tracer long name */
(PID.TID 0000.0001)               ''
(PID.TID 0000.0001)     ;
(PID.TID 0000.0001) PTRACERS_ioLabel = /* tracer IO Label */
(PID.TID 0000.0001)               '0N'
(PID.TID 0000.0001)     ;
(PID.TID 0000.0001) PTRACERS_advScheme = /* Advection Scheme */
(PID.TID 0000.0001)                      33
(PID.TID 0000.0001)     ;
(PID.TID 0000.0001) PTRACERS_SOM_Advection = /* tracer uses SOM advection scheme */
(PID.TID 0000.0001)                   F
(PID.TID 0000.0001)     ;
(PID.TID 0000.0001) PTRACERS_ImplVertAdv = /* implicit vert. advection flag */
(PID.TID 0000.0001)                   F
(PID.TID 0000.0001)     ;
(PID.TID 0000.0001) PTRACERS_diffKh = /* Laplacian Diffusivity */
(PID.TID 0000.0001)                 0.000000000000000E+00
(PID.TID 0000.0001)     ;
(PID.TID 0000.0001) PTRACERS_diffK4 = /* Biharmonic Diffusivity */
(PID.TID 0000.0001)                 0.000000000000000E+00
(PID.TID 0000.0001)     ;
(PID.TID 0000.0001) PTRACERS_diffKrNr = /* Vertical Diffusivity */
(PID.TID 0000.0001)    23 @  1.000000000000000E-05              /* K =  1: 23 */
(PID.TID 0000.0001)     ;
(PID.TID 0000.0001) PTRACERS_useGMRedi = /* apply GM-Redi */
(PID.TID 0000.0001)                   T
(PID.TID 0000.0001)     ;
(PID.TID 0000.0001) PTRACERS_useDWNSLP = /* apply DOWN-SLOPE Flow */
(PID.TID 0000.0001)                   F
(PID.TID 0000.0001)     ;
(PID.TID 0000.0001) PTRACERS_useKPP = /* apply KPP scheme */
(PID.TID 0000.0001)                   T
(PID.TID 0000.0001)     ;
(PID.TID 0000.0001) PTRACERS_ref = /* Reference vertical profile */
(PID.TID 0000.0001)    23 @  0.000000000000000E+00              /* K =  1: 23 */
(PID.TID 0000.0001)     ;
(PID.TID 0000.0001) PTRACERS_EvPrRn =/* tracer conc. in Evap. & Rain */
(PID.TID 0000.0001)                 1.234567000000000E+05
(PID.TID 0000.0001)     ;
(PID.TID 0000.0001)  -----------------------------------
(PID.TID 0000.0001)  tracer number :  140
(PID.TID 0000.0001) PTRACERS_names = /* Tracer short name */
(PID.TID 0000.0001)               'si07'
(PID.TID 0000.0001)     ;
(PID.TID 0000.0001) PTRACERS_long_names = /* Tracer long name */
(PID.TID 0000.0001)               ''
(PID.TID 0000.0001)     ;
(PID.TID 0000.0001) PTRACERS_ioLabel = /* tracer IO Label */
(PID.TID 0000.0001)               '0O'
(PID.TID 0000.0001)     ;
(PID.TID 0000.0001) PTRACERS_advScheme = /* Advection Scheme */
(PID.TID 0000.0001)                      33
(PID.TID 0000.0001)     ;
(PID.TID 0000.0001) PTRACERS_SOM_Advection = /* tracer uses SOM advection scheme */
(PID.TID 0000.0001)                   F
(PID.TID 0000.0001)     ;
(PID.TID 0000.0001) PTRACERS_ImplVertAdv = /* implicit vert. advection flag */
(PID.TID 0000.0001)                   F
(PID.TID 0000.0001)     ;
(PID.TID 0000.0001) PTRACERS_diffKh = /* Laplacian Diffusivity */
(PID.TID 0000.0001)                 0.000000000000000E+00
(PID.TID 0000.0001)     ;
(PID.TID 0000.0001) PTRACERS_diffK4 = /* Biharmonic Diffusivity */
(PID.TID 0000.0001)                 0.000000000000000E+00
(PID.TID 0000.0001)     ;
(PID.TID 0000.0001) PTRACERS_diffKrNr = /* Vertical Diffusivity */
(PID.TID 0000.0001)    23 @  1.000000000000000E-05              /* K =  1: 23 */
(PID.TID 0000.0001)     ;
(PID.TID 0000.0001) PTRACERS_useGMRedi = /* apply GM-Redi */
(PID.TID 0000.0001)                   T
(PID.TID 0000.0001)     ;
(PID.TID 0000.0001) PTRACERS_useDWNSLP = /* apply DOWN-SLOPE Flow */
(PID.TID 0000.0001)                   F
(PID.TID 0000.0001)     ;
(PID.TID 0000.0001) PTRACERS_useKPP = /* apply KPP scheme */
(PID.TID 0000.0001)                   T
(PID.TID 0000.0001)     ;
(PID.TID 0000.0001) PTRACERS_ref = /* Reference vertical profile */
(PID.TID 0000.0001)    23 @  0.000000000000000E+00              /* K =  1: 23 */
(PID.TID 0000.0001)     ;
(PID.TID 0000.0001) PTRACERS_EvPrRn =/* tracer conc. in Evap. & Rain */
(PID.TID 0000.0001)                 1.234567000000000E+05
(PID.TID 0000.0001)     ;
(PID.TID 0000.0001)  -----------------------------------
(PID.TID 0000.0001)  tracer number :  141
(PID.TID 0000.0001) PTRACERS_names = /* Tracer short name */
(PID.TID 0000.0001)               'si08'
(PID.TID 0000.0001)     ;
(PID.TID 0000.0001) PTRACERS_long_names = /* Tracer long name */
(PID.TID 0000.0001)               ''
(PID.TID 0000.0001)     ;
(PID.TID 0000.0001) PTRACERS_ioLabel = /* tracer IO Label */
(PID.TID 0000.0001)               '0P'
(PID.TID 0000.0001)     ;
(PID.TID 0000.0001) PTRACERS_advScheme = /* Advection Scheme */
(PID.TID 0000.0001)                      33
(PID.TID 0000.0001)     ;
(PID.TID 0000.0001) PTRACERS_SOM_Advection = /* tracer uses SOM advection scheme */
(PID.TID 0000.0001)                   F
(PID.TID 0000.0001)     ;
(PID.TID 0000.0001) PTRACERS_ImplVertAdv = /* implicit vert. advection flag */
(PID.TID 0000.0001)                   F
(PID.TID 0000.0001)     ;
(PID.TID 0000.0001) PTRACERS_diffKh = /* Laplacian Diffusivity */
(PID.TID 0000.0001)                 0.000000000000000E+00
(PID.TID 0000.0001)     ;
(PID.TID 0000.0001) PTRACERS_diffK4 = /* Biharmonic Diffusivity */
(PID.TID 0000.0001)                 0.000000000000000E+00
(PID.TID 0000.0001)     ;
(PID.TID 0000.0001) PTRACERS_diffKrNr = /* Vertical Diffusivity */
(PID.TID 0000.0001)    23 @  1.000000000000000E-05              /* K =  1: 23 */
(PID.TID 0000.0001)     ;
(PID.TID 0000.0001) PTRACERS_useGMRedi = /* apply GM-Redi */
(PID.TID 0000.0001)                   T
(PID.TID 0000.0001)     ;
(PID.TID 0000.0001) PTRACERS_useDWNSLP = /* apply DOWN-SLOPE Flow */
(PID.TID 0000.0001)                   F
(PID.TID 0000.0001)     ;
(PID.TID 0000.0001) PTRACERS_useKPP = /* apply KPP scheme */
(PID.TID 0000.0001)                   T
(PID.TID 0000.0001)     ;
(PID.TID 0000.0001) PTRACERS_ref = /* Reference vertical profile */
(PID.TID 0000.0001)    23 @  0.000000000000000E+00              /* K =  1: 23 */
(PID.TID 0000.0001)     ;
(PID.TID 0000.0001) PTRACERS_EvPrRn =/* tracer conc. in Evap. & Rain */
(PID.TID 0000.0001)                 1.234567000000000E+05
(PID.TID 0000.0001)     ;
(PID.TID 0000.0001)  -----------------------------------
(PID.TID 0000.0001)  tracer number :  142
(PID.TID 0000.0001) PTRACERS_names = /* Tracer short name */
(PID.TID 0000.0001)               'si09'
(PID.TID 0000.0001)     ;
(PID.TID 0000.0001) PTRACERS_long_names = /* Tracer long name */
(PID.TID 0000.0001)               ''
(PID.TID 0000.0001)     ;
(PID.TID 0000.0001) PTRACERS_ioLabel = /* tracer IO Label */
(PID.TID 0000.0001)               '0Q'
(PID.TID 0000.0001)     ;
(PID.TID 0000.0001) PTRACERS_advScheme = /* Advection Scheme */
(PID.TID 0000.0001)                      33
(PID.TID 0000.0001)     ;
(PID.TID 0000.0001) PTRACERS_SOM_Advection = /* tracer uses SOM advection scheme */
(PID.TID 0000.0001)                   F
(PID.TID 0000.0001)     ;
(PID.TID 0000.0001) PTRACERS_ImplVertAdv = /* implicit vert. advection flag */
(PID.TID 0000.0001)                   F
(PID.TID 0000.0001)     ;
(PID.TID 0000.0001) PTRACERS_diffKh = /* Laplacian Diffusivity */
(PID.TID 0000.0001)                 0.000000000000000E+00
(PID.TID 0000.0001)     ;
(PID.TID 0000.0001) PTRACERS_diffK4 = /* Biharmonic Diffusivity */
(PID.TID 0000.0001)                 0.000000000000000E+00
(PID.TID 0000.0001)     ;
(PID.TID 0000.0001) PTRACERS_diffKrNr = /* Vertical Diffusivity */
(PID.TID 0000.0001)    23 @  1.000000000000000E-05              /* K =  1: 23 */
(PID.TID 0000.0001)     ;
(PID.TID 0000.0001) PTRACERS_useGMRedi = /* apply GM-Redi */
(PID.TID 0000.0001)                   T
(PID.TID 0000.0001)     ;
(PID.TID 0000.0001) PTRACERS_useDWNSLP = /* apply DOWN-SLOPE Flow */
(PID.TID 0000.0001)                   F
(PID.TID 0000.0001)     ;
(PID.TID 0000.0001) PTRACERS_useKPP = /* apply KPP scheme */
(PID.TID 0000.0001)                   T
(PID.TID 0000.0001)     ;
(PID.TID 0000.0001) PTRACERS_ref = /* Reference vertical profile */
(PID.TID 0000.0001)    23 @  0.000000000000000E+00              /* K =  1: 23 */
(PID.TID 0000.0001)     ;
(PID.TID 0000.0001) PTRACERS_EvPrRn =/* tracer conc. in Evap. & Rain */
(PID.TID 0000.0001)                 1.234567000000000E+05
(PID.TID 0000.0001)     ;
(PID.TID 0000.0001)  -----------------------------------
(PID.TID 0000.0001)  tracer number :  143
(PID.TID 0000.0001) PTRACERS_names = /* Tracer short name */
(PID.TID 0000.0001)               'si10'
(PID.TID 0000.0001)     ;
(PID.TID 0000.0001) PTRACERS_long_names = /* Tracer long name */
(PID.TID 0000.0001)               ''
(PID.TID 0000.0001)     ;
(PID.TID 0000.0001) PTRACERS_ioLabel = /* tracer IO Label */
(PID.TID 0000.0001)               '0R'
(PID.TID 0000.0001)     ;
(PID.TID 0000.0001) PTRACERS_advScheme = /* Advection Scheme */
(PID.TID 0000.0001)                      33
(PID.TID 0000.0001)     ;
(PID.TID 0000.0001) PTRACERS_SOM_Advection = /* tracer uses SOM advection scheme */
(PID.TID 0000.0001)                   F
(PID.TID 0000.0001)     ;
(PID.TID 0000.0001) PTRACERS_ImplVertAdv = /* implicit vert. advection flag */
(PID.TID 0000.0001)                   F
(PID.TID 0000.0001)     ;
(PID.TID 0000.0001) PTRACERS_diffKh = /* Laplacian Diffusivity */
(PID.TID 0000.0001)                 0.000000000000000E+00
(PID.TID 0000.0001)     ;
(PID.TID 0000.0001) PTRACERS_diffK4 = /* Biharmonic Diffusivity */
(PID.TID 0000.0001)                 0.000000000000000E+00
(PID.TID 0000.0001)     ;
(PID.TID 0000.0001) PTRACERS_diffKrNr = /* Vertical Diffusivity */
(PID.TID 0000.0001)    23 @  1.000000000000000E-05              /* K =  1: 23 */
(PID.TID 0000.0001)     ;
(PID.TID 0000.0001) PTRACERS_useGMRedi = /* apply GM-Redi */
(PID.TID 0000.0001)                   T
(PID.TID 0000.0001)     ;
(PID.TID 0000.0001) PTRACERS_useDWNSLP = /* apply DOWN-SLOPE Flow */
(PID.TID 0000.0001)                   F
(PID.TID 0000.0001)     ;
(PID.TID 0000.0001) PTRACERS_useKPP = /* apply KPP scheme */
(PID.TID 0000.0001)                   T
(PID.TID 0000.0001)     ;
(PID.TID 0000.0001) PTRACERS_ref = /* Reference vertical profile */
(PID.TID 0000.0001)    23 @  0.000000000000000E+00              /* K =  1: 23 */
(PID.TID 0000.0001)     ;
(PID.TID 0000.0001) PTRACERS_EvPrRn =/* tracer conc. in Evap. & Rain */
(PID.TID 0000.0001)                 1.234567000000000E+05
(PID.TID 0000.0001)     ;
(PID.TID 0000.0001)  -----------------------------------
(PID.TID 0000.0001)  tracer number :  144
(PID.TID 0000.0001) PTRACERS_names = /* Tracer short name */
(PID.TID 0000.0001)               'si11'
(PID.TID 0000.0001)     ;
(PID.TID 0000.0001) PTRACERS_long_names = /* Tracer long name */
(PID.TID 0000.0001)               ''
(PID.TID 0000.0001)     ;
(PID.TID 0000.0001) PTRACERS_ioLabel = /* tracer IO Label */
(PID.TID 0000.0001)               '0S'
(PID.TID 0000.0001)     ;
(PID.TID 0000.0001) PTRACERS_advScheme = /* Advection Scheme */
(PID.TID 0000.0001)                      33
(PID.TID 0000.0001)     ;
(PID.TID 0000.0001) PTRACERS_SOM_Advection = /* tracer uses SOM advection scheme */
(PID.TID 0000.0001)                   F
(PID.TID 0000.0001)     ;
(PID.TID 0000.0001) PTRACERS_ImplVertAdv = /* implicit vert. advection flag */
(PID.TID 0000.0001)                   F
(PID.TID 0000.0001)     ;
(PID.TID 0000.0001) PTRACERS_diffKh = /* Laplacian Diffusivity */
(PID.TID 0000.0001)                 0.000000000000000E+00
(PID.TID 0000.0001)     ;
(PID.TID 0000.0001) PTRACERS_diffK4 = /* Biharmonic Diffusivity */
(PID.TID 0000.0001)                 0.000000000000000E+00
(PID.TID 0000.0001)     ;
(PID.TID 0000.0001) PTRACERS_diffKrNr = /* Vertical Diffusivity */
(PID.TID 0000.0001)    23 @  1.000000000000000E-05              /* K =  1: 23 */
(PID.TID 0000.0001)     ;
(PID.TID 0000.0001) PTRACERS_useGMRedi = /* apply GM-Redi */
(PID.TID 0000.0001)                   T
(PID.TID 0000.0001)     ;
(PID.TID 0000.0001) PTRACERS_useDWNSLP = /* apply DOWN-SLOPE Flow */
(PID.TID 0000.0001)                   F
(PID.TID 0000.0001)     ;
(PID.TID 0000.0001) PTRACERS_useKPP = /* apply KPP scheme */
(PID.TID 0000.0001)                   T
(PID.TID 0000.0001)     ;
(PID.TID 0000.0001) PTRACERS_ref = /* Reference vertical profile */
(PID.TID 0000.0001)    23 @  0.000000000000000E+00              /* K =  1: 23 */
(PID.TID 0000.0001)     ;
(PID.TID 0000.0001) PTRACERS_EvPrRn =/* tracer conc. in Evap. & Rain */
(PID.TID 0000.0001)                 1.234567000000000E+05
(PID.TID 0000.0001)     ;
(PID.TID 0000.0001)  -----------------------------------
(PID.TID 0000.0001)  tracer number :  145
(PID.TID 0000.0001) PTRACERS_names = /* Tracer short name */
(PID.TID 0000.0001)               'si12'
(PID.TID 0000.0001)     ;
(PID.TID 0000.0001) PTRACERS_long_names = /* Tracer long name */
(PID.TID 0000.0001)               ''
(PID.TID 0000.0001)     ;
(PID.TID 0000.0001) PTRACERS_ioLabel = /* tracer IO Label */
(PID.TID 0000.0001)               '0T'
(PID.TID 0000.0001)     ;
(PID.TID 0000.0001) PTRACERS_advScheme = /* Advection Scheme */
(PID.TID 0000.0001)                      33
(PID.TID 0000.0001)     ;
(PID.TID 0000.0001) PTRACERS_SOM_Advection = /* tracer uses SOM advection scheme */
(PID.TID 0000.0001)                   F
(PID.TID 0000.0001)     ;
(PID.TID 0000.0001) PTRACERS_ImplVertAdv = /* implicit vert. advection flag */
(PID.TID 0000.0001)                   F
(PID.TID 0000.0001)     ;
(PID.TID 0000.0001) PTRACERS_diffKh = /* Laplacian Diffusivity */
(PID.TID 0000.0001)                 0.000000000000000E+00
(PID.TID 0000.0001)     ;
(PID.TID 0000.0001) PTRACERS_diffK4 = /* Biharmonic Diffusivity */
(PID.TID 0000.0001)                 0.000000000000000E+00
(PID.TID 0000.0001)     ;
(PID.TID 0000.0001) PTRACERS_diffKrNr = /* Vertical Diffusivity */
(PID.TID 0000.0001)    23 @  1.000000000000000E-05              /* K =  1: 23 */
(PID.TID 0000.0001)     ;
(PID.TID 0000.0001) PTRACERS_useGMRedi = /* apply GM-Redi */
(PID.TID 0000.0001)                   T
(PID.TID 0000.0001)     ;
(PID.TID 0000.0001) PTRACERS_useDWNSLP = /* apply DOWN-SLOPE Flow */
(PID.TID 0000.0001)                   F
(PID.TID 0000.0001)     ;
(PID.TID 0000.0001) PTRACERS_useKPP = /* apply KPP scheme */
(PID.TID 0000.0001)                   T
(PID.TID 0000.0001)     ;
(PID.TID 0000.0001) PTRACERS_ref = /* Reference vertical profile */
(PID.TID 0000.0001)    23 @  0.000000000000000E+00              /* K =  1: 23 */
(PID.TID 0000.0001)     ;
(PID.TID 0000.0001) PTRACERS_EvPrRn =/* tracer conc. in Evap. & Rain */
(PID.TID 0000.0001)                 1.234567000000000E+05
(PID.TID 0000.0001)     ;
(PID.TID 0000.0001)  -----------------------------------
(PID.TID 0000.0001)  tracer number :  146
(PID.TID 0000.0001) PTRACERS_names = /* Tracer short name */
(PID.TID 0000.0001)               'si13'
(PID.TID 0000.0001)     ;
(PID.TID 0000.0001) PTRACERS_long_names = /* Tracer long name */
(PID.TID 0000.0001)               ''
(PID.TID 0000.0001)     ;
(PID.TID 0000.0001) PTRACERS_ioLabel = /* tracer IO Label */
(PID.TID 0000.0001)               '0U'
(PID.TID 0000.0001)     ;
(PID.TID 0000.0001) PTRACERS_advScheme = /* Advection Scheme */
(PID.TID 0000.0001)                      33
(PID.TID 0000.0001)     ;
(PID.TID 0000.0001) PTRACERS_SOM_Advection = /* tracer uses SOM advection scheme */
(PID.TID 0000.0001)                   F
(PID.TID 0000.0001)     ;
(PID.TID 0000.0001) PTRACERS_ImplVertAdv = /* implicit vert. advection flag */
(PID.TID 0000.0001)                   F
(PID.TID 0000.0001)     ;
(PID.TID 0000.0001) PTRACERS_diffKh = /* Laplacian Diffusivity */
(PID.TID 0000.0001)                 0.000000000000000E+00
(PID.TID 0000.0001)     ;
(PID.TID 0000.0001) PTRACERS_diffK4 = /* Biharmonic Diffusivity */
(PID.TID 0000.0001)                 0.000000000000000E+00
(PID.TID 0000.0001)     ;
(PID.TID 0000.0001) PTRACERS_diffKrNr = /* Vertical Diffusivity */
(PID.TID 0000.0001)    23 @  1.000000000000000E-05              /* K =  1: 23 */
(PID.TID 0000.0001)     ;
(PID.TID 0000.0001) PTRACERS_useGMRedi = /* apply GM-Redi */
(PID.TID 0000.0001)                   T
(PID.TID 0000.0001)     ;
(PID.TID 0000.0001) PTRACERS_useDWNSLP = /* apply DOWN-SLOPE Flow */
(PID.TID 0000.0001)                   F
(PID.TID 0000.0001)     ;
(PID.TID 0000.0001) PTRACERS_useKPP = /* apply KPP scheme */
(PID.TID 0000.0001)                   T
(PID.TID 0000.0001)     ;
(PID.TID 0000.0001) PTRACERS_ref = /* Reference vertical profile */
(PID.TID 0000.0001)    23 @  0.000000000000000E+00              /* K =  1: 23 */
(PID.TID 0000.0001)     ;
(PID.TID 0000.0001) PTRACERS_EvPrRn =/* tracer conc. in Evap. & Rain */
(PID.TID 0000.0001)                 1.234567000000000E+05
(PID.TID 0000.0001)     ;
(PID.TID 0000.0001)  -----------------------------------
(PID.TID 0000.0001)  tracer number :  147
(PID.TID 0000.0001) PTRACERS_names = /* Tracer short name */
(PID.TID 0000.0001)               'si14'
(PID.TID 0000.0001)     ;
(PID.TID 0000.0001) PTRACERS_long_names = /* Tracer long name */
(PID.TID 0000.0001)               ''
(PID.TID 0000.0001)     ;
(PID.TID 0000.0001) PTRACERS_ioLabel = /* tracer IO Label */
(PID.TID 0000.0001)               '0V'
(PID.TID 0000.0001)     ;
(PID.TID 0000.0001) PTRACERS_advScheme = /* Advection Scheme */
(PID.TID 0000.0001)                      33
(PID.TID 0000.0001)     ;
(PID.TID 0000.0001) PTRACERS_SOM_Advection = /* tracer uses SOM advection scheme */
(PID.TID 0000.0001)                   F
(PID.TID 0000.0001)     ;
(PID.TID 0000.0001) PTRACERS_ImplVertAdv = /* implicit vert. advection flag */
(PID.TID 0000.0001)                   F
(PID.TID 0000.0001)     ;
(PID.TID 0000.0001) PTRACERS_diffKh = /* Laplacian Diffusivity */
(PID.TID 0000.0001)                 0.000000000000000E+00
(PID.TID 0000.0001)     ;
(PID.TID 0000.0001) PTRACERS_diffK4 = /* Biharmonic Diffusivity */
(PID.TID 0000.0001)                 0.000000000000000E+00
(PID.TID 0000.0001)     ;
(PID.TID 0000.0001) PTRACERS_diffKrNr = /* Vertical Diffusivity */
(PID.TID 0000.0001)    23 @  1.000000000000000E-05              /* K =  1: 23 */
(PID.TID 0000.0001)     ;
(PID.TID 0000.0001) PTRACERS_useGMRedi = /* apply GM-Redi */
(PID.TID 0000.0001)                   T
(PID.TID 0000.0001)     ;
(PID.TID 0000.0001) PTRACERS_useDWNSLP = /* apply DOWN-SLOPE Flow */
(PID.TID 0000.0001)                   F
(PID.TID 0000.0001)     ;
(PID.TID 0000.0001) PTRACERS_useKPP = /* apply KPP scheme */
(PID.TID 0000.0001)                   T
(PID.TID 0000.0001)     ;
(PID.TID 0000.0001) PTRACERS_ref = /* Reference vertical profile */
(PID.TID 0000.0001)    23 @  0.000000000000000E+00              /* K =  1: 23 */
(PID.TID 0000.0001)     ;
(PID.TID 0000.0001) PTRACERS_EvPrRn =/* tracer conc. in Evap. & Rain */
(PID.TID 0000.0001)                 1.234567000000000E+05
(PID.TID 0000.0001)     ;
(PID.TID 0000.0001)  -----------------------------------
(PID.TID 0000.0001)  tracer number :  148
(PID.TID 0000.0001) PTRACERS_names = /* Tracer short name */
(PID.TID 0000.0001)               'si15'
(PID.TID 0000.0001)     ;
(PID.TID 0000.0001) PTRACERS_long_names = /* Tracer long name */
(PID.TID 0000.0001)               ''
(PID.TID 0000.0001)     ;
(PID.TID 0000.0001) PTRACERS_ioLabel = /* tracer IO Label */
(PID.TID 0000.0001)               '0W'
(PID.TID 0000.0001)     ;
(PID.TID 0000.0001) PTRACERS_advScheme = /* Advection Scheme */
(PID.TID 0000.0001)                      33
(PID.TID 0000.0001)     ;
(PID.TID 0000.0001) PTRACERS_SOM_Advection = /* tracer uses SOM advection scheme */
(PID.TID 0000.0001)                   F
(PID.TID 0000.0001)     ;
(PID.TID 0000.0001) PTRACERS_ImplVertAdv = /* implicit vert. advection flag */
(PID.TID 0000.0001)                   F
(PID.TID 0000.0001)     ;
(PID.TID 0000.0001) PTRACERS_diffKh = /* Laplacian Diffusivity */
(PID.TID 0000.0001)                 0.000000000000000E+00
(PID.TID 0000.0001)     ;
(PID.TID 0000.0001) PTRACERS_diffK4 = /* Biharmonic Diffusivity */
(PID.TID 0000.0001)                 0.000000000000000E+00
(PID.TID 0000.0001)     ;
(PID.TID 0000.0001) PTRACERS_diffKrNr = /* Vertical Diffusivity */
(PID.TID 0000.0001)    23 @  1.000000000000000E-05              /* K =  1: 23 */
(PID.TID 0000.0001)     ;
(PID.TID 0000.0001) PTRACERS_useGMRedi = /* apply GM-Redi */
(PID.TID 0000.0001)                   T
(PID.TID 0000.0001)     ;
(PID.TID 0000.0001) PTRACERS_useDWNSLP = /* apply DOWN-SLOPE Flow */
(PID.TID 0000.0001)                   F
(PID.TID 0000.0001)     ;
(PID.TID 0000.0001) PTRACERS_useKPP = /* apply KPP scheme */
(PID.TID 0000.0001)                   T
(PID.TID 0000.0001)     ;
(PID.TID 0000.0001) PTRACERS_ref = /* Reference vertical profile */
(PID.TID 0000.0001)    23 @  0.000000000000000E+00              /* K =  1: 23 */
(PID.TID 0000.0001)     ;
(PID.TID 0000.0001) PTRACERS_EvPrRn =/* tracer conc. in Evap. & Rain */
(PID.TID 0000.0001)                 1.234567000000000E+05
(PID.TID 0000.0001)     ;
(PID.TID 0000.0001)  -----------------------------------
(PID.TID 0000.0001)  tracer number :  149
(PID.TID 0000.0001) PTRACERS_names = /* Tracer short name */
(PID.TID 0000.0001)               'si16'
(PID.TID 0000.0001)     ;
(PID.TID 0000.0001) PTRACERS_long_names = /* Tracer long name */
(PID.TID 0000.0001)               ''
(PID.TID 0000.0001)     ;
(PID.TID 0000.0001) PTRACERS_ioLabel = /* tracer IO Label */
(PID.TID 0000.0001)               '0X'
(PID.TID 0000.0001)     ;
(PID.TID 0000.0001) PTRACERS_advScheme = /* Advection Scheme */
(PID.TID 0000.0001)                      33
(PID.TID 0000.0001)     ;
(PID.TID 0000.0001) PTRACERS_SOM_Advection = /* tracer uses SOM advection scheme */
(PID.TID 0000.0001)                   F
(PID.TID 0000.0001)     ;
(PID.TID 0000.0001) PTRACERS_ImplVertAdv = /* implicit vert. advection flag */
(PID.TID 0000.0001)                   F
(PID.TID 0000.0001)     ;
(PID.TID 0000.0001) PTRACERS_diffKh = /* Laplacian Diffusivity */
(PID.TID 0000.0001)                 0.000000000000000E+00
(PID.TID 0000.0001)     ;
(PID.TID 0000.0001) PTRACERS_diffK4 = /* Biharmonic Diffusivity */
(PID.TID 0000.0001)                 0.000000000000000E+00
(PID.TID 0000.0001)     ;
(PID.TID 0000.0001) PTRACERS_diffKrNr = /* Vertical Diffusivity */
(PID.TID 0000.0001)    23 @  1.000000000000000E-05              /* K =  1: 23 */
(PID.TID 0000.0001)     ;
(PID.TID 0000.0001) PTRACERS_useGMRedi = /* apply GM-Redi */
(PID.TID 0000.0001)                   T
(PID.TID 0000.0001)     ;
(PID.TID 0000.0001) PTRACERS_useDWNSLP = /* apply DOWN-SLOPE Flow */
(PID.TID 0000.0001)                   F
(PID.TID 0000.0001)     ;
(PID.TID 0000.0001) PTRACERS_useKPP = /* apply KPP scheme */
(PID.TID 0000.0001)                   T
(PID.TID 0000.0001)     ;
(PID.TID 0000.0001) PTRACERS_ref = /* Reference vertical profile */
(PID.TID 0000.0001)    23 @  0.000000000000000E+00              /* K =  1: 23 */
(PID.TID 0000.0001)     ;
(PID.TID 0000.0001) PTRACERS_EvPrRn =/* tracer conc. in Evap. & Rain */
(PID.TID 0000.0001)                 1.234567000000000E+05
(PID.TID 0000.0001)     ;
(PID.TID 0000.0001)  -----------------------------------
(PID.TID 0000.0001)  tracer number :  150
(PID.TID 0000.0001) PTRACERS_names = /* Tracer short name */
(PID.TID 0000.0001)               'si17'
(PID.TID 0000.0001)     ;
(PID.TID 0000.0001) PTRACERS_long_names = /* Tracer long name */
(PID.TID 0000.0001)               ''
(PID.TID 0000.0001)     ;
(PID.TID 0000.0001) PTRACERS_ioLabel = /* tracer IO Label */
(PID.TID 0000.0001)               '0Y'
(PID.TID 0000.0001)     ;
(PID.TID 0000.0001) PTRACERS_advScheme = /* Advection Scheme */
(PID.TID 0000.0001)                      33
(PID.TID 0000.0001)     ;
(PID.TID 0000.0001) PTRACERS_SOM_Advection = /* tracer uses SOM advection scheme */
(PID.TID 0000.0001)                   F
(PID.TID 0000.0001)     ;
(PID.TID 0000.0001) PTRACERS_ImplVertAdv = /* implicit vert. advection flag */
(PID.TID 0000.0001)                   F
(PID.TID 0000.0001)     ;
(PID.TID 0000.0001) PTRACERS_diffKh = /* Laplacian Diffusivity */
(PID.TID 0000.0001)                 0.000000000000000E+00
(PID.TID 0000.0001)     ;
(PID.TID 0000.0001) PTRACERS_diffK4 = /* Biharmonic Diffusivity */
(PID.TID 0000.0001)                 0.000000000000000E+00
(PID.TID 0000.0001)     ;
(PID.TID 0000.0001) PTRACERS_diffKrNr = /* Vertical Diffusivity */
(PID.TID 0000.0001)    23 @  1.000000000000000E-05              /* K =  1: 23 */
(PID.TID 0000.0001)     ;
(PID.TID 0000.0001) PTRACERS_useGMRedi = /* apply GM-Redi */
(PID.TID 0000.0001)                   T
(PID.TID 0000.0001)     ;
(PID.TID 0000.0001) PTRACERS_useDWNSLP = /* apply DOWN-SLOPE Flow */
(PID.TID 0000.0001)                   F
(PID.TID 0000.0001)     ;
(PID.TID 0000.0001) PTRACERS_useKPP = /* apply KPP scheme */
(PID.TID 0000.0001)                   T
(PID.TID 0000.0001)     ;
(PID.TID 0000.0001) PTRACERS_ref = /* Reference vertical profile */
(PID.TID 0000.0001)    23 @  0.000000000000000E+00              /* K =  1: 23 */
(PID.TID 0000.0001)     ;
(PID.TID 0000.0001) PTRACERS_EvPrRn =/* tracer conc. in Evap. & Rain */
(PID.TID 0000.0001)                 1.234567000000000E+05
(PID.TID 0000.0001)     ;
(PID.TID 0000.0001)  -----------------------------------
(PID.TID 0000.0001)  tracer number :  151
(PID.TID 0000.0001) PTRACERS_names = /* Tracer short name */
(PID.TID 0000.0001)               'si18'
(PID.TID 0000.0001)     ;
(PID.TID 0000.0001) PTRACERS_long_names = /* Tracer long name */
(PID.TID 0000.0001)               ''
(PID.TID 0000.0001)     ;
(PID.TID 0000.0001) PTRACERS_ioLabel = /* tracer IO Label */
(PID.TID 0000.0001)               '0Z'
(PID.TID 0000.0001)     ;
(PID.TID 0000.0001) PTRACERS_advScheme = /* Advection Scheme */
(PID.TID 0000.0001)                      33
(PID.TID 0000.0001)     ;
(PID.TID 0000.0001) PTRACERS_SOM_Advection = /* tracer uses SOM advection scheme */
(PID.TID 0000.0001)                   F
(PID.TID 0000.0001)     ;
(PID.TID 0000.0001) PTRACERS_ImplVertAdv = /* implicit vert. advection flag */
(PID.TID 0000.0001)                   F
(PID.TID 0000.0001)     ;
(PID.TID 0000.0001) PTRACERS_diffKh = /* Laplacian Diffusivity */
(PID.TID 0000.0001)                 0.000000000000000E+00
(PID.TID 0000.0001)     ;
(PID.TID 0000.0001) PTRACERS_diffK4 = /* Biharmonic Diffusivity */
(PID.TID 0000.0001)                 0.000000000000000E+00
(PID.TID 0000.0001)     ;
(PID.TID 0000.0001) PTRACERS_diffKrNr = /* Vertical Diffusivity */
(PID.TID 0000.0001)    23 @  1.000000000000000E-05              /* K =  1: 23 */
(PID.TID 0000.0001)     ;
(PID.TID 0000.0001) PTRACERS_useGMRedi = /* apply GM-Redi */
(PID.TID 0000.0001)                   T
(PID.TID 0000.0001)     ;
(PID.TID 0000.0001) PTRACERS_useDWNSLP = /* apply DOWN-SLOPE Flow */
(PID.TID 0000.0001)                   F
(PID.TID 0000.0001)     ;
(PID.TID 0000.0001) PTRACERS_useKPP = /* apply KPP scheme */
(PID.TID 0000.0001)                   T
(PID.TID 0000.0001)     ;
(PID.TID 0000.0001) PTRACERS_ref = /* Reference vertical profile */
(PID.TID 0000.0001)    23 @  0.000000000000000E+00              /* K =  1: 23 */
(PID.TID 0000.0001)     ;
(PID.TID 0000.0001) PTRACERS_EvPrRn =/* tracer conc. in Evap. & Rain */
(PID.TID 0000.0001)                 1.234567000000000E+05
(PID.TID 0000.0001)     ;
(PID.TID 0000.0001)  -----------------------------------
(PID.TID 0000.0001)  tracer number :  152
(PID.TID 0000.0001) PTRACERS_names = /* Tracer short name */
(PID.TID 0000.0001)               'si19'
(PID.TID 0000.0001)     ;
(PID.TID 0000.0001) PTRACERS_long_names = /* Tracer long name */
(PID.TID 0000.0001)               ''
(PID.TID 0000.0001)     ;
(PID.TID 0000.0001) PTRACERS_ioLabel = /* tracer IO Label */
(PID.TID 0000.0001)               '1a'
(PID.TID 0000.0001)     ;
(PID.TID 0000.0001) PTRACERS_advScheme = /* Advection Scheme */
(PID.TID 0000.0001)                      33
(PID.TID 0000.0001)     ;
(PID.TID 0000.0001) PTRACERS_SOM_Advection = /* tracer uses SOM advection scheme */
(PID.TID 0000.0001)                   F
(PID.TID 0000.0001)     ;
(PID.TID 0000.0001) PTRACERS_ImplVertAdv = /* implicit vert. advection flag */
(PID.TID 0000.0001)                   F
(PID.TID 0000.0001)     ;
(PID.TID 0000.0001) PTRACERS_diffKh = /* Laplacian Diffusivity */
(PID.TID 0000.0001)                 0.000000000000000E+00
(PID.TID 0000.0001)     ;
(PID.TID 0000.0001) PTRACERS_diffK4 = /* Biharmonic Diffusivity */
(PID.TID 0000.0001)                 0.000000000000000E+00
(PID.TID 0000.0001)     ;
(PID.TID 0000.0001) PTRACERS_diffKrNr = /* Vertical Diffusivity */
(PID.TID 0000.0001)    23 @  1.000000000000000E-05              /* K =  1: 23 */
(PID.TID 0000.0001)     ;
(PID.TID 0000.0001) PTRACERS_useGMRedi = /* apply GM-Redi */
(PID.TID 0000.0001)                   T
(PID.TID 0000.0001)     ;
(PID.TID 0000.0001) PTRACERS_useDWNSLP = /* apply DOWN-SLOPE Flow */
(PID.TID 0000.0001)                   F
(PID.TID 0000.0001)     ;
(PID.TID 0000.0001) PTRACERS_useKPP = /* apply KPP scheme */
(PID.TID 0000.0001)                   T
(PID.TID 0000.0001)     ;
(PID.TID 0000.0001) PTRACERS_ref = /* Reference vertical profile */
(PID.TID 0000.0001)    23 @  0.000000000000000E+00              /* K =  1: 23 */
(PID.TID 0000.0001)     ;
(PID.TID 0000.0001) PTRACERS_EvPrRn =/* tracer conc. in Evap. & Rain */
(PID.TID 0000.0001)                 1.234567000000000E+05
(PID.TID 0000.0001)     ;
(PID.TID 0000.0001)  -----------------------------------
(PID.TID 0000.0001)  tracer number :  153
(PID.TID 0000.0001) PTRACERS_names = /* Tracer short name */
(PID.TID 0000.0001)               'si20'
(PID.TID 0000.0001)     ;
(PID.TID 0000.0001) PTRACERS_long_names = /* Tracer long name */
(PID.TID 0000.0001)               ''
(PID.TID 0000.0001)     ;
(PID.TID 0000.0001) PTRACERS_ioLabel = /* tracer IO Label */
(PID.TID 0000.0001)               '1b'
(PID.TID 0000.0001)     ;
(PID.TID 0000.0001) PTRACERS_advScheme = /* Advection Scheme */
(PID.TID 0000.0001)                      33
(PID.TID 0000.0001)     ;
(PID.TID 0000.0001) PTRACERS_SOM_Advection = /* tracer uses SOM advection scheme */
(PID.TID 0000.0001)                   F
(PID.TID 0000.0001)     ;
(PID.TID 0000.0001) PTRACERS_ImplVertAdv = /* implicit vert. advection flag */
(PID.TID 0000.0001)                   F
(PID.TID 0000.0001)     ;
(PID.TID 0000.0001) PTRACERS_diffKh = /* Laplacian Diffusivity */
(PID.TID 0000.0001)                 0.000000000000000E+00
(PID.TID 0000.0001)     ;
(PID.TID 0000.0001) PTRACERS_diffK4 = /* Biharmonic Diffusivity */
(PID.TID 0000.0001)                 0.000000000000000E+00
(PID.TID 0000.0001)     ;
(PID.TID 0000.0001) PTRACERS_diffKrNr = /* Vertical Diffusivity */
(PID.TID 0000.0001)    23 @  1.000000000000000E-05              /* K =  1: 23 */
(PID.TID 0000.0001)     ;
(PID.TID 0000.0001) PTRACERS_useGMRedi = /* apply GM-Redi */
(PID.TID 0000.0001)                   T
(PID.TID 0000.0001)     ;
(PID.TID 0000.0001) PTRACERS_useDWNSLP = /* apply DOWN-SLOPE Flow */
(PID.TID 0000.0001)                   F
(PID.TID 0000.0001)     ;
(PID.TID 0000.0001) PTRACERS_useKPP = /* apply KPP scheme */
(PID.TID 0000.0001)                   T
(PID.TID 0000.0001)     ;
(PID.TID 0000.0001) PTRACERS_ref = /* Reference vertical profile */
(PID.TID 0000.0001)    23 @  0.000000000000000E+00              /* K =  1: 23 */
(PID.TID 0000.0001)     ;
(PID.TID 0000.0001) PTRACERS_EvPrRn =/* tracer conc. in Evap. & Rain */
(PID.TID 0000.0001)                 1.234567000000000E+05
(PID.TID 0000.0001)     ;
(PID.TID 0000.0001)  -----------------------------------
(PID.TID 0000.0001)  tracer number :  154
(PID.TID 0000.0001) PTRACERS_names = /* Tracer short name */
(PID.TID 0000.0001)               'si21'
(PID.TID 0000.0001)     ;
(PID.TID 0000.0001) PTRACERS_long_names = /* Tracer long name */
(PID.TID 0000.0001)               ''
(PID.TID 0000.0001)     ;
(PID.TID 0000.0001) PTRACERS_ioLabel = /* tracer IO Label */
(PID.TID 0000.0001)               '1c'
(PID.TID 0000.0001)     ;
(PID.TID 0000.0001) PTRACERS_advScheme = /* Advection Scheme */
(PID.TID 0000.0001)                      33
(PID.TID 0000.0001)     ;
(PID.TID 0000.0001) PTRACERS_SOM_Advection = /* tracer uses SOM advection scheme */
(PID.TID 0000.0001)                   F
(PID.TID 0000.0001)     ;
(PID.TID 0000.0001) PTRACERS_ImplVertAdv = /* implicit vert. advection flag */
(PID.TID 0000.0001)                   F
(PID.TID 0000.0001)     ;
(PID.TID 0000.0001) PTRACERS_diffKh = /* Laplacian Diffusivity */
(PID.TID 0000.0001)                 0.000000000000000E+00
(PID.TID 0000.0001)     ;
(PID.TID 0000.0001) PTRACERS_diffK4 = /* Biharmonic Diffusivity */
(PID.TID 0000.0001)                 0.000000000000000E+00
(PID.TID 0000.0001)     ;
(PID.TID 0000.0001) PTRACERS_diffKrNr = /* Vertical Diffusivity */
(PID.TID 0000.0001)    23 @  1.000000000000000E-05              /* K =  1: 23 */
(PID.TID 0000.0001)     ;
(PID.TID 0000.0001) PTRACERS_useGMRedi = /* apply GM-Redi */
(PID.TID 0000.0001)                   T
(PID.TID 0000.0001)     ;
(PID.TID 0000.0001) PTRACERS_useDWNSLP = /* apply DOWN-SLOPE Flow */
(PID.TID 0000.0001)                   F
(PID.TID 0000.0001)     ;
(PID.TID 0000.0001) PTRACERS_useKPP = /* apply KPP scheme */
(PID.TID 0000.0001)                   T
(PID.TID 0000.0001)     ;
(PID.TID 0000.0001) PTRACERS_ref = /* Reference vertical profile */
(PID.TID 0000.0001)    23 @  0.000000000000000E+00              /* K =  1: 23 */
(PID.TID 0000.0001)     ;
(PID.TID 0000.0001) PTRACERS_EvPrRn =/* tracer conc. in Evap. & Rain */
(PID.TID 0000.0001)                 1.234567000000000E+05
(PID.TID 0000.0001)     ;
(PID.TID 0000.0001)  -----------------------------------
(PID.TID 0000.0001)  tracer number :  155
(PID.TID 0000.0001) PTRACERS_names = /* Tracer short name */
(PID.TID 0000.0001)               'si22'
(PID.TID 0000.0001)     ;
(PID.TID 0000.0001) PTRACERS_long_names = /* Tracer long name */
(PID.TID 0000.0001)               ''
(PID.TID 0000.0001)     ;
(PID.TID 0000.0001) PTRACERS_ioLabel = /* tracer IO Label */
(PID.TID 0000.0001)               '1d'
(PID.TID 0000.0001)     ;
(PID.TID 0000.0001) PTRACERS_advScheme = /* Advection Scheme */
(PID.TID 0000.0001)                      33
(PID.TID 0000.0001)     ;
(PID.TID 0000.0001) PTRACERS_SOM_Advection = /* tracer uses SOM advection scheme */
(PID.TID 0000.0001)                   F
(PID.TID 0000.0001)     ;
(PID.TID 0000.0001) PTRACERS_ImplVertAdv = /* implicit vert. advection flag */
(PID.TID 0000.0001)                   F
(PID.TID 0000.0001)     ;
(PID.TID 0000.0001) PTRACERS_diffKh = /* Laplacian Diffusivity */
(PID.TID 0000.0001)                 0.000000000000000E+00
(PID.TID 0000.0001)     ;
(PID.TID 0000.0001) PTRACERS_diffK4 = /* Biharmonic Diffusivity */
(PID.TID 0000.0001)                 0.000000000000000E+00
(PID.TID 0000.0001)     ;
(PID.TID 0000.0001) PTRACERS_diffKrNr = /* Vertical Diffusivity */
(PID.TID 0000.0001)    23 @  1.000000000000000E-05              /* K =  1: 23 */
(PID.TID 0000.0001)     ;
(PID.TID 0000.0001) PTRACERS_useGMRedi = /* apply GM-Redi */
(PID.TID 0000.0001)                   T
(PID.TID 0000.0001)     ;
(PID.TID 0000.0001) PTRACERS_useDWNSLP = /* apply DOWN-SLOPE Flow */
(PID.TID 0000.0001)                   F
(PID.TID 0000.0001)     ;
(PID.TID 0000.0001) PTRACERS_useKPP = /* apply KPP scheme */
(PID.TID 0000.0001)                   T
(PID.TID 0000.0001)     ;
(PID.TID 0000.0001) PTRACERS_ref = /* Reference vertical profile */
(PID.TID 0000.0001)    23 @  0.000000000000000E+00              /* K =  1: 23 */
(PID.TID 0000.0001)     ;
(PID.TID 0000.0001) PTRACERS_EvPrRn =/* tracer conc. in Evap. & Rain */
(PID.TID 0000.0001)                 1.234567000000000E+05
(PID.TID 0000.0001)     ;
(PID.TID 0000.0001)  -----------------------------------
(PID.TID 0000.0001)  tracer number :  156
(PID.TID 0000.0001) PTRACERS_names = /* Tracer short name */
(PID.TID 0000.0001)               'si23'
(PID.TID 0000.0001)     ;
(PID.TID 0000.0001) PTRACERS_long_names = /* Tracer long name */
(PID.TID 0000.0001)               ''
(PID.TID 0000.0001)     ;
(PID.TID 0000.0001) PTRACERS_ioLabel = /* tracer IO Label */
(PID.TID 0000.0001)               '1e'
(PID.TID 0000.0001)     ;
(PID.TID 0000.0001) PTRACERS_advScheme = /* Advection Scheme */
(PID.TID 0000.0001)                      33
(PID.TID 0000.0001)     ;
(PID.TID 0000.0001) PTRACERS_SOM_Advection = /* tracer uses SOM advection scheme */
(PID.TID 0000.0001)                   F
(PID.TID 0000.0001)     ;
(PID.TID 0000.0001) PTRACERS_ImplVertAdv = /* implicit vert. advection flag */
(PID.TID 0000.0001)                   F
(PID.TID 0000.0001)     ;
(PID.TID 0000.0001) PTRACERS_diffKh = /* Laplacian Diffusivity */
(PID.TID 0000.0001)                 0.000000000000000E+00
(PID.TID 0000.0001)     ;
(PID.TID 0000.0001) PTRACERS_diffK4 = /* Biharmonic Diffusivity */
(PID.TID 0000.0001)                 0.000000000000000E+00
(PID.TID 0000.0001)     ;
(PID.TID 0000.0001) PTRACERS_diffKrNr = /* Vertical Diffusivity */
(PID.TID 0000.0001)    23 @  1.000000000000000E-05              /* K =  1: 23 */
(PID.TID 0000.0001)     ;
(PID.TID 0000.0001) PTRACERS_useGMRedi = /* apply GM-Redi */
(PID.TID 0000.0001)                   T
(PID.TID 0000.0001)     ;
(PID.TID 0000.0001) PTRACERS_useDWNSLP = /* apply DOWN-SLOPE Flow */
(PID.TID 0000.0001)                   F
(PID.TID 0000.0001)     ;
(PID.TID 0000.0001) PTRACERS_useKPP = /* apply KPP scheme */
(PID.TID 0000.0001)                   T
(PID.TID 0000.0001)     ;
(PID.TID 0000.0001) PTRACERS_ref = /* Reference vertical profile */
(PID.TID 0000.0001)    23 @  0.000000000000000E+00              /* K =  1: 23 */
(PID.TID 0000.0001)     ;
(PID.TID 0000.0001) PTRACERS_EvPrRn =/* tracer conc. in Evap. & Rain */
(PID.TID 0000.0001)                 1.234567000000000E+05
(PID.TID 0000.0001)     ;
(PID.TID 0000.0001)  -----------------------------------
(PID.TID 0000.0001)  tracer number :  157
(PID.TID 0000.0001) PTRACERS_names = /* Tracer short name */
(PID.TID 0000.0001)               'si24'
(PID.TID 0000.0001)     ;
(PID.TID 0000.0001) PTRACERS_long_names = /* Tracer long name */
(PID.TID 0000.0001)               ''
(PID.TID 0000.0001)     ;
(PID.TID 0000.0001) PTRACERS_ioLabel = /* tracer IO Label */
(PID.TID 0000.0001)               '1f'
(PID.TID 0000.0001)     ;
(PID.TID 0000.0001) PTRACERS_advScheme = /* Advection Scheme */
(PID.TID 0000.0001)                      33
(PID.TID 0000.0001)     ;
(PID.TID 0000.0001) PTRACERS_SOM_Advection = /* tracer uses SOM advection scheme */
(PID.TID 0000.0001)                   F
(PID.TID 0000.0001)     ;
(PID.TID 0000.0001) PTRACERS_ImplVertAdv = /* implicit vert. advection flag */
(PID.TID 0000.0001)                   F
(PID.TID 0000.0001)     ;
(PID.TID 0000.0001) PTRACERS_diffKh = /* Laplacian Diffusivity */
(PID.TID 0000.0001)                 0.000000000000000E+00
(PID.TID 0000.0001)     ;
(PID.TID 0000.0001) PTRACERS_diffK4 = /* Biharmonic Diffusivity */
(PID.TID 0000.0001)                 0.000000000000000E+00
(PID.TID 0000.0001)     ;
(PID.TID 0000.0001) PTRACERS_diffKrNr = /* Vertical Diffusivity */
(PID.TID 0000.0001)    23 @  1.000000000000000E-05              /* K =  1: 23 */
(PID.TID 0000.0001)     ;
(PID.TID 0000.0001) PTRACERS_useGMRedi = /* apply GM-Redi */
(PID.TID 0000.0001)                   T
(PID.TID 0000.0001)     ;
(PID.TID 0000.0001) PTRACERS_useDWNSLP = /* apply DOWN-SLOPE Flow */
(PID.TID 0000.0001)                   F
(PID.TID 0000.0001)     ;
(PID.TID 0000.0001) PTRACERS_useKPP = /* apply KPP scheme */
(PID.TID 0000.0001)                   T
(PID.TID 0000.0001)     ;
(PID.TID 0000.0001) PTRACERS_ref = /* Reference vertical profile */
(PID.TID 0000.0001)    23 @  0.000000000000000E+00              /* K =  1: 23 */
(PID.TID 0000.0001)     ;
(PID.TID 0000.0001) PTRACERS_EvPrRn =/* tracer conc. in Evap. & Rain */
(PID.TID 0000.0001)                 1.234567000000000E+05
(PID.TID 0000.0001)     ;
(PID.TID 0000.0001)  -----------------------------------
(PID.TID 0000.0001)  tracer number :  158
(PID.TID 0000.0001) PTRACERS_names = /* Tracer short name */
(PID.TID 0000.0001)               'si25'
(PID.TID 0000.0001)     ;
(PID.TID 0000.0001) PTRACERS_long_names = /* Tracer long name */
(PID.TID 0000.0001)               ''
(PID.TID 0000.0001)     ;
(PID.TID 0000.0001) PTRACERS_ioLabel = /* tracer IO Label */
(PID.TID 0000.0001)               '1g'
(PID.TID 0000.0001)     ;
(PID.TID 0000.0001) PTRACERS_advScheme = /* Advection Scheme */
(PID.TID 0000.0001)                      33
(PID.TID 0000.0001)     ;
(PID.TID 0000.0001) PTRACERS_SOM_Advection = /* tracer uses SOM advection scheme */
(PID.TID 0000.0001)                   F
(PID.TID 0000.0001)     ;
(PID.TID 0000.0001) PTRACERS_ImplVertAdv = /* implicit vert. advection flag */
(PID.TID 0000.0001)                   F
(PID.TID 0000.0001)     ;
(PID.TID 0000.0001) PTRACERS_diffKh = /* Laplacian Diffusivity */
(PID.TID 0000.0001)                 0.000000000000000E+00
(PID.TID 0000.0001)     ;
(PID.TID 0000.0001) PTRACERS_diffK4 = /* Biharmonic Diffusivity */
(PID.TID 0000.0001)                 0.000000000000000E+00
(PID.TID 0000.0001)     ;
(PID.TID 0000.0001) PTRACERS_diffKrNr = /* Vertical Diffusivity */
(PID.TID 0000.0001)    23 @  1.000000000000000E-05              /* K =  1: 23 */
(PID.TID 0000.0001)     ;
(PID.TID 0000.0001) PTRACERS_useGMRedi = /* apply GM-Redi */
(PID.TID 0000.0001)                   T
(PID.TID 0000.0001)     ;
(PID.TID 0000.0001) PTRACERS_useDWNSLP = /* apply DOWN-SLOPE Flow */
(PID.TID 0000.0001)                   F
(PID.TID 0000.0001)     ;
(PID.TID 0000.0001) PTRACERS_useKPP = /* apply KPP scheme */
(PID.TID 0000.0001)                   T
(PID.TID 0000.0001)     ;
(PID.TID 0000.0001) PTRACERS_ref = /* Reference vertical profile */
(PID.TID 0000.0001)    23 @  0.000000000000000E+00              /* K =  1: 23 */
(PID.TID 0000.0001)     ;
(PID.TID 0000.0001) PTRACERS_EvPrRn =/* tracer conc. in Evap. & Rain */
(PID.TID 0000.0001)                 1.234567000000000E+05
(PID.TID 0000.0001)     ;
(PID.TID 0000.0001)  -----------------------------------
(PID.TID 0000.0001)  tracer number :  159
(PID.TID 0000.0001) PTRACERS_names = /* Tracer short name */
(PID.TID 0000.0001)               'si26'
(PID.TID 0000.0001)     ;
(PID.TID 0000.0001) PTRACERS_long_names = /* Tracer long name */
(PID.TID 0000.0001)               ''
(PID.TID 0000.0001)     ;
(PID.TID 0000.0001) PTRACERS_ioLabel = /* tracer IO Label */
(PID.TID 0000.0001)               '1h'
(PID.TID 0000.0001)     ;
(PID.TID 0000.0001) PTRACERS_advScheme = /* Advection Scheme */
(PID.TID 0000.0001)                      33
(PID.TID 0000.0001)     ;
(PID.TID 0000.0001) PTRACERS_SOM_Advection = /* tracer uses SOM advection scheme */
(PID.TID 0000.0001)                   F
(PID.TID 0000.0001)     ;
(PID.TID 0000.0001) PTRACERS_ImplVertAdv = /* implicit vert. advection flag */
(PID.TID 0000.0001)                   F
(PID.TID 0000.0001)     ;
(PID.TID 0000.0001) PTRACERS_diffKh = /* Laplacian Diffusivity */
(PID.TID 0000.0001)                 0.000000000000000E+00
(PID.TID 0000.0001)     ;
(PID.TID 0000.0001) PTRACERS_diffK4 = /* Biharmonic Diffusivity */
(PID.TID 0000.0001)                 0.000000000000000E+00
(PID.TID 0000.0001)     ;
(PID.TID 0000.0001) PTRACERS_diffKrNr = /* Vertical Diffusivity */
(PID.TID 0000.0001)    23 @  1.000000000000000E-05              /* K =  1: 23 */
(PID.TID 0000.0001)     ;
(PID.TID 0000.0001) PTRACERS_useGMRedi = /* apply GM-Redi */
(PID.TID 0000.0001)                   T
(PID.TID 0000.0001)     ;
(PID.TID 0000.0001) PTRACERS_useDWNSLP = /* apply DOWN-SLOPE Flow */
(PID.TID 0000.0001)                   F
(PID.TID 0000.0001)     ;
(PID.TID 0000.0001) PTRACERS_useKPP = /* apply KPP scheme */
(PID.TID 0000.0001)                   T
(PID.TID 0000.0001)     ;
(PID.TID 0000.0001) PTRACERS_ref = /* Reference vertical profile */
(PID.TID 0000.0001)    23 @  0.000000000000000E+00              /* K =  1: 23 */
(PID.TID 0000.0001)     ;
(PID.TID 0000.0001) PTRACERS_EvPrRn =/* tracer conc. in Evap. & Rain */
(PID.TID 0000.0001)                 1.234567000000000E+05
(PID.TID 0000.0001)     ;
(PID.TID 0000.0001)  -----------------------------------
(PID.TID 0000.0001)  tracer number :  160
(PID.TID 0000.0001) PTRACERS_names = /* Tracer short name */
(PID.TID 0000.0001)               'si27'
(PID.TID 0000.0001)     ;
(PID.TID 0000.0001) PTRACERS_long_names = /* Tracer long name */
(PID.TID 0000.0001)               ''
(PID.TID 0000.0001)     ;
(PID.TID 0000.0001) PTRACERS_ioLabel = /* tracer IO Label */
(PID.TID 0000.0001)               '1i'
(PID.TID 0000.0001)     ;
(PID.TID 0000.0001) PTRACERS_advScheme = /* Advection Scheme */
(PID.TID 0000.0001)                      33
(PID.TID 0000.0001)     ;
(PID.TID 0000.0001) PTRACERS_SOM_Advection = /* tracer uses SOM advection scheme */
(PID.TID 0000.0001)                   F
(PID.TID 0000.0001)     ;
(PID.TID 0000.0001) PTRACERS_ImplVertAdv = /* implicit vert. advection flag */
(PID.TID 0000.0001)                   F
(PID.TID 0000.0001)     ;
(PID.TID 0000.0001) PTRACERS_diffKh = /* Laplacian Diffusivity */
(PID.TID 0000.0001)                 0.000000000000000E+00
(PID.TID 0000.0001)     ;
(PID.TID 0000.0001) PTRACERS_diffK4 = /* Biharmonic Diffusivity */
(PID.TID 0000.0001)                 0.000000000000000E+00
(PID.TID 0000.0001)     ;
(PID.TID 0000.0001) PTRACERS_diffKrNr = /* Vertical Diffusivity */
(PID.TID 0000.0001)    23 @  1.000000000000000E-05              /* K =  1: 23 */
(PID.TID 0000.0001)     ;
(PID.TID 0000.0001) PTRACERS_useGMRedi = /* apply GM-Redi */
(PID.TID 0000.0001)                   T
(PID.TID 0000.0001)     ;
(PID.TID 0000.0001) PTRACERS_useDWNSLP = /* apply DOWN-SLOPE Flow */
(PID.TID 0000.0001)                   F
(PID.TID 0000.0001)     ;
(PID.TID 0000.0001) PTRACERS_useKPP = /* apply KPP scheme */
(PID.TID 0000.0001)                   T
(PID.TID 0000.0001)     ;
(PID.TID 0000.0001) PTRACERS_ref = /* Reference vertical profile */
(PID.TID 0000.0001)    23 @  0.000000000000000E+00              /* K =  1: 23 */
(PID.TID 0000.0001)     ;
(PID.TID 0000.0001) PTRACERS_EvPrRn =/* tracer conc. in Evap. & Rain */
(PID.TID 0000.0001)                 1.234567000000000E+05
(PID.TID 0000.0001)     ;
(PID.TID 0000.0001)  -----------------------------------
(PID.TID 0000.0001)  tracer number :  161
(PID.TID 0000.0001) PTRACERS_names = /* Tracer short name */
(PID.TID 0000.0001)               'si28'
(PID.TID 0000.0001)     ;
(PID.TID 0000.0001) PTRACERS_long_names = /* Tracer long name */
(PID.TID 0000.0001)               ''
(PID.TID 0000.0001)     ;
(PID.TID 0000.0001) PTRACERS_ioLabel = /* tracer IO Label */
(PID.TID 0000.0001)               '1j'
(PID.TID 0000.0001)     ;
(PID.TID 0000.0001) PTRACERS_advScheme = /* Advection Scheme */
(PID.TID 0000.0001)                      33
(PID.TID 0000.0001)     ;
(PID.TID 0000.0001) PTRACERS_SOM_Advection = /* tracer uses SOM advection scheme */
(PID.TID 0000.0001)                   F
(PID.TID 0000.0001)     ;
(PID.TID 0000.0001) PTRACERS_ImplVertAdv = /* implicit vert. advection flag */
(PID.TID 0000.0001)                   F
(PID.TID 0000.0001)     ;
(PID.TID 0000.0001) PTRACERS_diffKh = /* Laplacian Diffusivity */
(PID.TID 0000.0001)                 0.000000000000000E+00
(PID.TID 0000.0001)     ;
(PID.TID 0000.0001) PTRACERS_diffK4 = /* Biharmonic Diffusivity */
(PID.TID 0000.0001)                 0.000000000000000E+00
(PID.TID 0000.0001)     ;
(PID.TID 0000.0001) PTRACERS_diffKrNr = /* Vertical Diffusivity */
(PID.TID 0000.0001)    23 @  1.000000000000000E-05              /* K =  1: 23 */
(PID.TID 0000.0001)     ;
(PID.TID 0000.0001) PTRACERS_useGMRedi = /* apply GM-Redi */
(PID.TID 0000.0001)                   T
(PID.TID 0000.0001)     ;
(PID.TID 0000.0001) PTRACERS_useDWNSLP = /* apply DOWN-SLOPE Flow */
(PID.TID 0000.0001)                   F
(PID.TID 0000.0001)     ;
(PID.TID 0000.0001) PTRACERS_useKPP = /* apply KPP scheme */
(PID.TID 0000.0001)                   T
(PID.TID 0000.0001)     ;
(PID.TID 0000.0001) PTRACERS_ref = /* Reference vertical profile */
(PID.TID 0000.0001)    23 @  0.000000000000000E+00              /* K =  1: 23 */
(PID.TID 0000.0001)     ;
(PID.TID 0000.0001) PTRACERS_EvPrRn =/* tracer conc. in Evap. & Rain */
(PID.TID 0000.0001)                 1.234567000000000E+05
(PID.TID 0000.0001)     ;
(PID.TID 0000.0001)  -----------------------------------
(PID.TID 0000.0001)  tracer number :  162
(PID.TID 0000.0001) PTRACERS_names = /* Tracer short name */
(PID.TID 0000.0001)               'si29'
(PID.TID 0000.0001)     ;
(PID.TID 0000.0001) PTRACERS_long_names = /* Tracer long name */
(PID.TID 0000.0001)               ''
(PID.TID 0000.0001)     ;
(PID.TID 0000.0001) PTRACERS_ioLabel = /* tracer IO Label */
(PID.TID 0000.0001)               '1k'
(PID.TID 0000.0001)     ;
(PID.TID 0000.0001) PTRACERS_advScheme = /* Advection Scheme */
(PID.TID 0000.0001)                      33
(PID.TID 0000.0001)     ;
(PID.TID 0000.0001) PTRACERS_SOM_Advection = /* tracer uses SOM advection scheme */
(PID.TID 0000.0001)                   F
(PID.TID 0000.0001)     ;
(PID.TID 0000.0001) PTRACERS_ImplVertAdv = /* implicit vert. advection flag */
(PID.TID 0000.0001)                   F
(PID.TID 0000.0001)     ;
(PID.TID 0000.0001) PTRACERS_diffKh = /* Laplacian Diffusivity */
(PID.TID 0000.0001)                 0.000000000000000E+00
(PID.TID 0000.0001)     ;
(PID.TID 0000.0001) PTRACERS_diffK4 = /* Biharmonic Diffusivity */
(PID.TID 0000.0001)                 0.000000000000000E+00
(PID.TID 0000.0001)     ;
(PID.TID 0000.0001) PTRACERS_diffKrNr = /* Vertical Diffusivity */
(PID.TID 0000.0001)    23 @  1.000000000000000E-05              /* K =  1: 23 */
(PID.TID 0000.0001)     ;
(PID.TID 0000.0001) PTRACERS_useGMRedi = /* apply GM-Redi */
(PID.TID 0000.0001)                   T
(PID.TID 0000.0001)     ;
(PID.TID 0000.0001) PTRACERS_useDWNSLP = /* apply DOWN-SLOPE Flow */
(PID.TID 0000.0001)                   F
(PID.TID 0000.0001)     ;
(PID.TID 0000.0001) PTRACERS_useKPP = /* apply KPP scheme */
(PID.TID 0000.0001)                   T
(PID.TID 0000.0001)     ;
(PID.TID 0000.0001) PTRACERS_ref = /* Reference vertical profile */
(PID.TID 0000.0001)    23 @  0.000000000000000E+00              /* K =  1: 23 */
(PID.TID 0000.0001)     ;
(PID.TID 0000.0001) PTRACERS_EvPrRn =/* tracer conc. in Evap. & Rain */
(PID.TID 0000.0001)                 1.234567000000000E+05
(PID.TID 0000.0001)     ;
(PID.TID 0000.0001)  -----------------------------------
(PID.TID 0000.0001)  tracer number :  163
(PID.TID 0000.0001) PTRACERS_names = /* Tracer short name */
(PID.TID 0000.0001)               'si30'
(PID.TID 0000.0001)     ;
(PID.TID 0000.0001) PTRACERS_long_names = /* Tracer long name */
(PID.TID 0000.0001)               ''
(PID.TID 0000.0001)     ;
(PID.TID 0000.0001) PTRACERS_ioLabel = /* tracer IO Label */
(PID.TID 0000.0001)               '1l'
(PID.TID 0000.0001)     ;
(PID.TID 0000.0001) PTRACERS_advScheme = /* Advection Scheme */
(PID.TID 0000.0001)                      33
(PID.TID 0000.0001)     ;
(PID.TID 0000.0001) PTRACERS_SOM_Advection = /* tracer uses SOM advection scheme */
(PID.TID 0000.0001)                   F
(PID.TID 0000.0001)     ;
(PID.TID 0000.0001) PTRACERS_ImplVertAdv = /* implicit vert. advection flag */
(PID.TID 0000.0001)                   F
(PID.TID 0000.0001)     ;
(PID.TID 0000.0001) PTRACERS_diffKh = /* Laplacian Diffusivity */
(PID.TID 0000.0001)                 0.000000000000000E+00
(PID.TID 0000.0001)     ;
(PID.TID 0000.0001) PTRACERS_diffK4 = /* Biharmonic Diffusivity */
(PID.TID 0000.0001)                 0.000000000000000E+00
(PID.TID 0000.0001)     ;
(PID.TID 0000.0001) PTRACERS_diffKrNr = /* Vertical Diffusivity */
(PID.TID 0000.0001)    23 @  1.000000000000000E-05              /* K =  1: 23 */
(PID.TID 0000.0001)     ;
(PID.TID 0000.0001) PTRACERS_useGMRedi = /* apply GM-Redi */
(PID.TID 0000.0001)                   T
(PID.TID 0000.0001)     ;
(PID.TID 0000.0001) PTRACERS_useDWNSLP = /* apply DOWN-SLOPE Flow */
(PID.TID 0000.0001)                   F
(PID.TID 0000.0001)     ;
(PID.TID 0000.0001) PTRACERS_useKPP = /* apply KPP scheme */
(PID.TID 0000.0001)                   T
(PID.TID 0000.0001)     ;
(PID.TID 0000.0001) PTRACERS_ref = /* Reference vertical profile */
(PID.TID 0000.0001)    23 @  0.000000000000000E+00              /* K =  1: 23 */
(PID.TID 0000.0001)     ;
(PID.TID 0000.0001) PTRACERS_EvPrRn =/* tracer conc. in Evap. & Rain */
(PID.TID 0000.0001)                 1.234567000000000E+05
(PID.TID 0000.0001)     ;
(PID.TID 0000.0001)  -----------------------------------
(PID.TID 0000.0001)  tracer number :  164
(PID.TID 0000.0001) PTRACERS_names = /* Tracer short name */
(PID.TID 0000.0001)               'si31'
(PID.TID 0000.0001)     ;
(PID.TID 0000.0001) PTRACERS_long_names = /* Tracer long name */
(PID.TID 0000.0001)               ''
(PID.TID 0000.0001)     ;
(PID.TID 0000.0001) PTRACERS_ioLabel = /* tracer IO Label */
(PID.TID 0000.0001)               '1m'
(PID.TID 0000.0001)     ;
(PID.TID 0000.0001) PTRACERS_advScheme = /* Advection Scheme */
(PID.TID 0000.0001)                      33
(PID.TID 0000.0001)     ;
(PID.TID 0000.0001) PTRACERS_SOM_Advection = /* tracer uses SOM advection scheme */
(PID.TID 0000.0001)                   F
(PID.TID 0000.0001)     ;
(PID.TID 0000.0001) PTRACERS_ImplVertAdv = /* implicit vert. advection flag */
(PID.TID 0000.0001)                   F
(PID.TID 0000.0001)     ;
(PID.TID 0000.0001) PTRACERS_diffKh = /* Laplacian Diffusivity */
(PID.TID 0000.0001)                 0.000000000000000E+00
(PID.TID 0000.0001)     ;
(PID.TID 0000.0001) PTRACERS_diffK4 = /* Biharmonic Diffusivity */
(PID.TID 0000.0001)                 0.000000000000000E+00
(PID.TID 0000.0001)     ;
(PID.TID 0000.0001) PTRACERS_diffKrNr = /* Vertical Diffusivity */
(PID.TID 0000.0001)    23 @  1.000000000000000E-05              /* K =  1: 23 */
(PID.TID 0000.0001)     ;
(PID.TID 0000.0001) PTRACERS_useGMRedi = /* apply GM-Redi */
(PID.TID 0000.0001)                   T
(PID.TID 0000.0001)     ;
(PID.TID 0000.0001) PTRACERS_useDWNSLP = /* apply DOWN-SLOPE Flow */
(PID.TID 0000.0001)                   F
(PID.TID 0000.0001)     ;
(PID.TID 0000.0001) PTRACERS_useKPP = /* apply KPP scheme */
(PID.TID 0000.0001)                   T
(PID.TID 0000.0001)     ;
(PID.TID 0000.0001) PTRACERS_ref = /* Reference vertical profile */
(PID.TID 0000.0001)    23 @  0.000000000000000E+00              /* K =  1: 23 */
(PID.TID 0000.0001)     ;
(PID.TID 0000.0001) PTRACERS_EvPrRn =/* tracer conc. in Evap. & Rain */
(PID.TID 0000.0001)                 1.234567000000000E+05
(PID.TID 0000.0001)     ;
(PID.TID 0000.0001)  -----------------------------------
(PID.TID 0000.0001)  tracer number :  165
(PID.TID 0000.0001) PTRACERS_names = /* Tracer short name */
(PID.TID 0000.0001)               'si32'
(PID.TID 0000.0001)     ;
(PID.TID 0000.0001) PTRACERS_long_names = /* Tracer long name */
(PID.TID 0000.0001)               ''
(PID.TID 0000.0001)     ;
(PID.TID 0000.0001) PTRACERS_ioLabel = /* tracer IO Label */
(PID.TID 0000.0001)               '1n'
(PID.TID 0000.0001)     ;
(PID.TID 0000.0001) PTRACERS_advScheme = /* Advection Scheme */
(PID.TID 0000.0001)                      33
(PID.TID 0000.0001)     ;
(PID.TID 0000.0001) PTRACERS_SOM_Advection = /* tracer uses SOM advection scheme */
(PID.TID 0000.0001)                   F
(PID.TID 0000.0001)     ;
(PID.TID 0000.0001) PTRACERS_ImplVertAdv = /* implicit vert. advection flag */
(PID.TID 0000.0001)                   F
(PID.TID 0000.0001)     ;
(PID.TID 0000.0001) PTRACERS_diffKh = /* Laplacian Diffusivity */
(PID.TID 0000.0001)                 0.000000000000000E+00
(PID.TID 0000.0001)     ;
(PID.TID 0000.0001) PTRACERS_diffK4 = /* Biharmonic Diffusivity */
(PID.TID 0000.0001)                 0.000000000000000E+00
(PID.TID 0000.0001)     ;
(PID.TID 0000.0001) PTRACERS_diffKrNr = /* Vertical Diffusivity */
(PID.TID 0000.0001)    23 @  1.000000000000000E-05              /* K =  1: 23 */
(PID.TID 0000.0001)     ;
(PID.TID 0000.0001) PTRACERS_useGMRedi = /* apply GM-Redi */
(PID.TID 0000.0001)                   T
(PID.TID 0000.0001)     ;
(PID.TID 0000.0001) PTRACERS_useDWNSLP = /* apply DOWN-SLOPE Flow */
(PID.TID 0000.0001)                   F
(PID.TID 0000.0001)     ;
(PID.TID 0000.0001) PTRACERS_useKPP = /* apply KPP scheme */
(PID.TID 0000.0001)                   T
(PID.TID 0000.0001)     ;
(PID.TID 0000.0001) PTRACERS_ref = /* Reference vertical profile */
(PID.TID 0000.0001)    23 @  0.000000000000000E+00              /* K =  1: 23 */
(PID.TID 0000.0001)     ;
(PID.TID 0000.0001) PTRACERS_EvPrRn =/* tracer conc. in Evap. & Rain */
(PID.TID 0000.0001)                 1.234567000000000E+05
(PID.TID 0000.0001)     ;
(PID.TID 0000.0001)  -----------------------------------
(PID.TID 0000.0001)  tracer number :  166
(PID.TID 0000.0001) PTRACERS_names = /* Tracer short name */
(PID.TID 0000.0001)               'si33'
(PID.TID 0000.0001)     ;
(PID.TID 0000.0001) PTRACERS_long_names = /* Tracer long name */
(PID.TID 0000.0001)               ''
(PID.TID 0000.0001)     ;
(PID.TID 0000.0001) PTRACERS_ioLabel = /* tracer IO Label */
(PID.TID 0000.0001)               '1o'
(PID.TID 0000.0001)     ;
(PID.TID 0000.0001) PTRACERS_advScheme = /* Advection Scheme */
(PID.TID 0000.0001)                      33
(PID.TID 0000.0001)     ;
(PID.TID 0000.0001) PTRACERS_SOM_Advection = /* tracer uses SOM advection scheme */
(PID.TID 0000.0001)                   F
(PID.TID 0000.0001)     ;
(PID.TID 0000.0001) PTRACERS_ImplVertAdv = /* implicit vert. advection flag */
(PID.TID 0000.0001)                   F
(PID.TID 0000.0001)     ;
(PID.TID 0000.0001) PTRACERS_diffKh = /* Laplacian Diffusivity */
(PID.TID 0000.0001)                 0.000000000000000E+00
(PID.TID 0000.0001)     ;
(PID.TID 0000.0001) PTRACERS_diffK4 = /* Biharmonic Diffusivity */
(PID.TID 0000.0001)                 0.000000000000000E+00
(PID.TID 0000.0001)     ;
(PID.TID 0000.0001) PTRACERS_diffKrNr = /* Vertical Diffusivity */
(PID.TID 0000.0001)    23 @  1.000000000000000E-05              /* K =  1: 23 */
(PID.TID 0000.0001)     ;
(PID.TID 0000.0001) PTRACERS_useGMRedi = /* apply GM-Redi */
(PID.TID 0000.0001)                   T
(PID.TID 0000.0001)     ;
(PID.TID 0000.0001) PTRACERS_useDWNSLP = /* apply DOWN-SLOPE Flow */
(PID.TID 0000.0001)                   F
(PID.TID 0000.0001)     ;
(PID.TID 0000.0001) PTRACERS_useKPP = /* apply KPP scheme */
(PID.TID 0000.0001)                   T
(PID.TID 0000.0001)     ;
(PID.TID 0000.0001) PTRACERS_ref = /* Reference vertical profile */
(PID.TID 0000.0001)    23 @  0.000000000000000E+00              /* K =  1: 23 */
(PID.TID 0000.0001)     ;
(PID.TID 0000.0001) PTRACERS_EvPrRn =/* tracer conc. in Evap. & Rain */
(PID.TID 0000.0001)                 1.234567000000000E+05
(PID.TID 0000.0001)     ;
(PID.TID 0000.0001)  -----------------------------------
(PID.TID 0000.0001)  tracer number :  167
(PID.TID 0000.0001) PTRACERS_names = /* Tracer short name */
(PID.TID 0000.0001)               'si34'
(PID.TID 0000.0001)     ;
(PID.TID 0000.0001) PTRACERS_long_names = /* Tracer long name */
(PID.TID 0000.0001)               ''
(PID.TID 0000.0001)     ;
(PID.TID 0000.0001) PTRACERS_ioLabel = /* tracer IO Label */
(PID.TID 0000.0001)               '1p'
(PID.TID 0000.0001)     ;
(PID.TID 0000.0001) PTRACERS_advScheme = /* Advection Scheme */
(PID.TID 0000.0001)                      33
(PID.TID 0000.0001)     ;
(PID.TID 0000.0001) PTRACERS_SOM_Advection = /* tracer uses SOM advection scheme */
(PID.TID 0000.0001)                   F
(PID.TID 0000.0001)     ;
(PID.TID 0000.0001) PTRACERS_ImplVertAdv = /* implicit vert. advection flag */
(PID.TID 0000.0001)                   F
(PID.TID 0000.0001)     ;
(PID.TID 0000.0001) PTRACERS_diffKh = /* Laplacian Diffusivity */
(PID.TID 0000.0001)                 0.000000000000000E+00
(PID.TID 0000.0001)     ;
(PID.TID 0000.0001) PTRACERS_diffK4 = /* Biharmonic Diffusivity */
(PID.TID 0000.0001)                 0.000000000000000E+00
(PID.TID 0000.0001)     ;
(PID.TID 0000.0001) PTRACERS_diffKrNr = /* Vertical Diffusivity */
(PID.TID 0000.0001)    23 @  1.000000000000000E-05              /* K =  1: 23 */
(PID.TID 0000.0001)     ;
(PID.TID 0000.0001) PTRACERS_useGMRedi = /* apply GM-Redi */
(PID.TID 0000.0001)                   T
(PID.TID 0000.0001)     ;
(PID.TID 0000.0001) PTRACERS_useDWNSLP = /* apply DOWN-SLOPE Flow */
(PID.TID 0000.0001)                   F
(PID.TID 0000.0001)     ;
(PID.TID 0000.0001) PTRACERS_useKPP = /* apply KPP scheme */
(PID.TID 0000.0001)                   T
(PID.TID 0000.0001)     ;
(PID.TID 0000.0001) PTRACERS_ref = /* Reference vertical profile */
(PID.TID 0000.0001)    23 @  0.000000000000000E+00              /* K =  1: 23 */
(PID.TID 0000.0001)     ;
(PID.TID 0000.0001) PTRACERS_EvPrRn =/* tracer conc. in Evap. & Rain */
(PID.TID 0000.0001)                 1.234567000000000E+05
(PID.TID 0000.0001)     ;
(PID.TID 0000.0001)  -----------------------------------
(PID.TID 0000.0001)  tracer number :  168
(PID.TID 0000.0001) PTRACERS_names = /* Tracer short name */
(PID.TID 0000.0001)               'si35'
(PID.TID 0000.0001)     ;
(PID.TID 0000.0001) PTRACERS_long_names = /* Tracer long name */
(PID.TID 0000.0001)               ''
(PID.TID 0000.0001)     ;
(PID.TID 0000.0001) PTRACERS_ioLabel = /* tracer IO Label */
(PID.TID 0000.0001)               '1q'
(PID.TID 0000.0001)     ;
(PID.TID 0000.0001) PTRACERS_advScheme = /* Advection Scheme */
(PID.TID 0000.0001)                      33
(PID.TID 0000.0001)     ;
(PID.TID 0000.0001) PTRACERS_SOM_Advection = /* tracer uses SOM advection scheme */
(PID.TID 0000.0001)                   F
(PID.TID 0000.0001)     ;
(PID.TID 0000.0001) PTRACERS_ImplVertAdv = /* implicit vert. advection flag */
(PID.TID 0000.0001)                   F
(PID.TID 0000.0001)     ;
(PID.TID 0000.0001) PTRACERS_diffKh = /* Laplacian Diffusivity */
(PID.TID 0000.0001)                 0.000000000000000E+00
(PID.TID 0000.0001)     ;
(PID.TID 0000.0001) PTRACERS_diffK4 = /* Biharmonic Diffusivity */
(PID.TID 0000.0001)                 0.000000000000000E+00
(PID.TID 0000.0001)     ;
(PID.TID 0000.0001) PTRACERS_diffKrNr = /* Vertical Diffusivity */
(PID.TID 0000.0001)    23 @  1.000000000000000E-05              /* K =  1: 23 */
(PID.TID 0000.0001)     ;
(PID.TID 0000.0001) PTRACERS_useGMRedi = /* apply GM-Redi */
(PID.TID 0000.0001)                   T
(PID.TID 0000.0001)     ;
(PID.TID 0000.0001) PTRACERS_useDWNSLP = /* apply DOWN-SLOPE Flow */
(PID.TID 0000.0001)                   F
(PID.TID 0000.0001)     ;
(PID.TID 0000.0001) PTRACERS_useKPP = /* apply KPP scheme */
(PID.TID 0000.0001)                   T
(PID.TID 0000.0001)     ;
(PID.TID 0000.0001) PTRACERS_ref = /* Reference vertical profile */
(PID.TID 0000.0001)    23 @  0.000000000000000E+00              /* K =  1: 23 */
(PID.TID 0000.0001)     ;
(PID.TID 0000.0001) PTRACERS_EvPrRn =/* tracer conc. in Evap. & Rain */
(PID.TID 0000.0001)                 1.234567000000000E+05
(PID.TID 0000.0001)     ;
(PID.TID 0000.0001)  -----------------------------------
(PID.TID 0000.0001)  tracer number :  169
(PID.TID 0000.0001) PTRACERS_names = /* Tracer short name */
(PID.TID 0000.0001)               'si36'
(PID.TID 0000.0001)     ;
(PID.TID 0000.0001) PTRACERS_long_names = /* Tracer long name */
(PID.TID 0000.0001)               ''
(PID.TID 0000.0001)     ;
(PID.TID 0000.0001) PTRACERS_ioLabel = /* tracer IO Label */
(PID.TID 0000.0001)               '1r'
(PID.TID 0000.0001)     ;
(PID.TID 0000.0001) PTRACERS_advScheme = /* Advection Scheme */
(PID.TID 0000.0001)                      33
(PID.TID 0000.0001)     ;
(PID.TID 0000.0001) PTRACERS_SOM_Advection = /* tracer uses SOM advection scheme */
(PID.TID 0000.0001)                   F
(PID.TID 0000.0001)     ;
(PID.TID 0000.0001) PTRACERS_ImplVertAdv = /* implicit vert. advection flag */
(PID.TID 0000.0001)                   F
(PID.TID 0000.0001)     ;
(PID.TID 0000.0001) PTRACERS_diffKh = /* Laplacian Diffusivity */
(PID.TID 0000.0001)                 0.000000000000000E+00
(PID.TID 0000.0001)     ;
(PID.TID 0000.0001) PTRACERS_diffK4 = /* Biharmonic Diffusivity */
(PID.TID 0000.0001)                 0.000000000000000E+00
(PID.TID 0000.0001)     ;
(PID.TID 0000.0001) PTRACERS_diffKrNr = /* Vertical Diffusivity */
(PID.TID 0000.0001)    23 @  1.000000000000000E-05              /* K =  1: 23 */
(PID.TID 0000.0001)     ;
(PID.TID 0000.0001) PTRACERS_useGMRedi = /* apply GM-Redi */
(PID.TID 0000.0001)                   T
(PID.TID 0000.0001)     ;
(PID.TID 0000.0001) PTRACERS_useDWNSLP = /* apply DOWN-SLOPE Flow */
(PID.TID 0000.0001)                   F
(PID.TID 0000.0001)     ;
(PID.TID 0000.0001) PTRACERS_useKPP = /* apply KPP scheme */
(PID.TID 0000.0001)                   T
(PID.TID 0000.0001)     ;
(PID.TID 0000.0001) PTRACERS_ref = /* Reference vertical profile */
(PID.TID 0000.0001)    23 @  0.000000000000000E+00              /* K =  1: 23 */
(PID.TID 0000.0001)     ;
(PID.TID 0000.0001) PTRACERS_EvPrRn =/* tracer conc. in Evap. & Rain */
(PID.TID 0000.0001)                 1.234567000000000E+05
(PID.TID 0000.0001)     ;
(PID.TID 0000.0001)  -----------------------------------
(PID.TID 0000.0001)  tracer number :  170
(PID.TID 0000.0001) PTRACERS_names = /* Tracer short name */
(PID.TID 0000.0001)               'si37'
(PID.TID 0000.0001)     ;
(PID.TID 0000.0001) PTRACERS_long_names = /* Tracer long name */
(PID.TID 0000.0001)               ''
(PID.TID 0000.0001)     ;
(PID.TID 0000.0001) PTRACERS_ioLabel = /* tracer IO Label */
(PID.TID 0000.0001)               '1s'
(PID.TID 0000.0001)     ;
(PID.TID 0000.0001) PTRACERS_advScheme = /* Advection Scheme */
(PID.TID 0000.0001)                      33
(PID.TID 0000.0001)     ;
(PID.TID 0000.0001) PTRACERS_SOM_Advection = /* tracer uses SOM advection scheme */
(PID.TID 0000.0001)                   F
(PID.TID 0000.0001)     ;
(PID.TID 0000.0001) PTRACERS_ImplVertAdv = /* implicit vert. advection flag */
(PID.TID 0000.0001)                   F
(PID.TID 0000.0001)     ;
(PID.TID 0000.0001) PTRACERS_diffKh = /* Laplacian Diffusivity */
(PID.TID 0000.0001)                 0.000000000000000E+00
(PID.TID 0000.0001)     ;
(PID.TID 0000.0001) PTRACERS_diffK4 = /* Biharmonic Diffusivity */
(PID.TID 0000.0001)                 0.000000000000000E+00
(PID.TID 0000.0001)     ;
(PID.TID 0000.0001) PTRACERS_diffKrNr = /* Vertical Diffusivity */
(PID.TID 0000.0001)    23 @  1.000000000000000E-05              /* K =  1: 23 */
(PID.TID 0000.0001)     ;
(PID.TID 0000.0001) PTRACERS_useGMRedi = /* apply GM-Redi */
(PID.TID 0000.0001)                   T
(PID.TID 0000.0001)     ;
(PID.TID 0000.0001) PTRACERS_useDWNSLP = /* apply DOWN-SLOPE Flow */
(PID.TID 0000.0001)                   F
(PID.TID 0000.0001)     ;
(PID.TID 0000.0001) PTRACERS_useKPP = /* apply KPP scheme */
(PID.TID 0000.0001)                   T
(PID.TID 0000.0001)     ;
(PID.TID 0000.0001) PTRACERS_ref = /* Reference vertical profile */
(PID.TID 0000.0001)    23 @  0.000000000000000E+00              /* K =  1: 23 */
(PID.TID 0000.0001)     ;
(PID.TID 0000.0001) PTRACERS_EvPrRn =/* tracer conc. in Evap. & Rain */
(PID.TID 0000.0001)                 1.234567000000000E+05
(PID.TID 0000.0001)     ;
(PID.TID 0000.0001)  -----------------------------------
(PID.TID 0000.0001)  tracer number :  171
(PID.TID 0000.0001) PTRACERS_names = /* Tracer short name */
(PID.TID 0000.0001)               'si38'
(PID.TID 0000.0001)     ;
(PID.TID 0000.0001) PTRACERS_long_names = /* Tracer long name */
(PID.TID 0000.0001)               ''
(PID.TID 0000.0001)     ;
(PID.TID 0000.0001) PTRACERS_ioLabel = /* tracer IO Label */
(PID.TID 0000.0001)               '1t'
(PID.TID 0000.0001)     ;
(PID.TID 0000.0001) PTRACERS_advScheme = /* Advection Scheme */
(PID.TID 0000.0001)                      33
(PID.TID 0000.0001)     ;
(PID.TID 0000.0001) PTRACERS_SOM_Advection = /* tracer uses SOM advection scheme */
(PID.TID 0000.0001)                   F
(PID.TID 0000.0001)     ;
(PID.TID 0000.0001) PTRACERS_ImplVertAdv = /* implicit vert. advection flag */
(PID.TID 0000.0001)                   F
(PID.TID 0000.0001)     ;
(PID.TID 0000.0001) PTRACERS_diffKh = /* Laplacian Diffusivity */
(PID.TID 0000.0001)                 0.000000000000000E+00
(PID.TID 0000.0001)     ;
(PID.TID 0000.0001) PTRACERS_diffK4 = /* Biharmonic Diffusivity */
(PID.TID 0000.0001)                 0.000000000000000E+00
(PID.TID 0000.0001)     ;
(PID.TID 0000.0001) PTRACERS_diffKrNr = /* Vertical Diffusivity */
(PID.TID 0000.0001)    23 @  1.000000000000000E-05              /* K =  1: 23 */
(PID.TID 0000.0001)     ;
(PID.TID 0000.0001) PTRACERS_useGMRedi = /* apply GM-Redi */
(PID.TID 0000.0001)                   T
(PID.TID 0000.0001)     ;
(PID.TID 0000.0001) PTRACERS_useDWNSLP = /* apply DOWN-SLOPE Flow */
(PID.TID 0000.0001)                   F
(PID.TID 0000.0001)     ;
(PID.TID 0000.0001) PTRACERS_useKPP = /* apply KPP scheme */
(PID.TID 0000.0001)                   T
(PID.TID 0000.0001)     ;
(PID.TID 0000.0001) PTRACERS_ref = /* Reference vertical profile */
(PID.TID 0000.0001)    23 @  0.000000000000000E+00              /* K =  1: 23 */
(PID.TID 0000.0001)     ;
(PID.TID 0000.0001) PTRACERS_EvPrRn =/* tracer conc. in Evap. & Rain */
(PID.TID 0000.0001)                 1.234567000000000E+05
(PID.TID 0000.0001)     ;
(PID.TID 0000.0001)  -----------------------------------
(PID.TID 0000.0001)  tracer number :  172
(PID.TID 0000.0001) PTRACERS_names = /* Tracer short name */
(PID.TID 0000.0001)               'fe01'
(PID.TID 0000.0001)     ;
(PID.TID 0000.0001) PTRACERS_long_names = /* Tracer long name */
(PID.TID 0000.0001)               ''
(PID.TID 0000.0001)     ;
(PID.TID 0000.0001) PTRACERS_ioLabel = /* tracer IO Label */
(PID.TID 0000.0001)               '1u'
(PID.TID 0000.0001)     ;
(PID.TID 0000.0001) PTRACERS_advScheme = /* Advection Scheme */
(PID.TID 0000.0001)                      33
(PID.TID 0000.0001)     ;
(PID.TID 0000.0001) PTRACERS_SOM_Advection = /* tracer uses SOM advection scheme */
(PID.TID 0000.0001)                   F
(PID.TID 0000.0001)     ;
(PID.TID 0000.0001) PTRACERS_ImplVertAdv = /* implicit vert. advection flag */
(PID.TID 0000.0001)                   F
(PID.TID 0000.0001)     ;
(PID.TID 0000.0001) PTRACERS_diffKh = /* Laplacian Diffusivity */
(PID.TID 0000.0001)                 0.000000000000000E+00
(PID.TID 0000.0001)     ;
(PID.TID 0000.0001) PTRACERS_diffK4 = /* Biharmonic Diffusivity */
(PID.TID 0000.0001)                 0.000000000000000E+00
(PID.TID 0000.0001)     ;
(PID.TID 0000.0001) PTRACERS_diffKrNr = /* Vertical Diffusivity */
(PID.TID 0000.0001)    23 @  1.000000000000000E-05              /* K =  1: 23 */
(PID.TID 0000.0001)     ;
(PID.TID 0000.0001) PTRACERS_useGMRedi = /* apply GM-Redi */
(PID.TID 0000.0001)                   T
(PID.TID 0000.0001)     ;
(PID.TID 0000.0001) PTRACERS_useDWNSLP = /* apply DOWN-SLOPE Flow */
(PID.TID 0000.0001)                   F
(PID.TID 0000.0001)     ;
(PID.TID 0000.0001) PTRACERS_useKPP = /* apply KPP scheme */
(PID.TID 0000.0001)                   T
(PID.TID 0000.0001)     ;
(PID.TID 0000.0001) PTRACERS_ref = /* Reference vertical profile */
(PID.TID 0000.0001)    23 @  0.000000000000000E+00              /* K =  1: 23 */
(PID.TID 0000.0001)     ;
(PID.TID 0000.0001) PTRACERS_EvPrRn =/* tracer conc. in Evap. & Rain */
(PID.TID 0000.0001)                 1.234567000000000E+05
(PID.TID 0000.0001)     ;
(PID.TID 0000.0001)  -----------------------------------
(PID.TID 0000.0001)  tracer number :  173
(PID.TID 0000.0001) PTRACERS_names = /* Tracer short name */
(PID.TID 0000.0001)               'fe02'
(PID.TID 0000.0001)     ;
(PID.TID 0000.0001) PTRACERS_long_names = /* Tracer long name */
(PID.TID 0000.0001)               ''
(PID.TID 0000.0001)     ;
(PID.TID 0000.0001) PTRACERS_ioLabel = /* tracer IO Label */
(PID.TID 0000.0001)               '1v'
(PID.TID 0000.0001)     ;
(PID.TID 0000.0001) PTRACERS_advScheme = /* Advection Scheme */
(PID.TID 0000.0001)                      33
(PID.TID 0000.0001)     ;
(PID.TID 0000.0001) PTRACERS_SOM_Advection = /* tracer uses SOM advection scheme */
(PID.TID 0000.0001)                   F
(PID.TID 0000.0001)     ;
(PID.TID 0000.0001) PTRACERS_ImplVertAdv = /* implicit vert. advection flag */
(PID.TID 0000.0001)                   F
(PID.TID 0000.0001)     ;
(PID.TID 0000.0001) PTRACERS_diffKh = /* Laplacian Diffusivity */
(PID.TID 0000.0001)                 0.000000000000000E+00
(PID.TID 0000.0001)     ;
(PID.TID 0000.0001) PTRACERS_diffK4 = /* Biharmonic Diffusivity */
(PID.TID 0000.0001)                 0.000000000000000E+00
(PID.TID 0000.0001)     ;
(PID.TID 0000.0001) PTRACERS_diffKrNr = /* Vertical Diffusivity */
(PID.TID 0000.0001)    23 @  1.000000000000000E-05              /* K =  1: 23 */
(PID.TID 0000.0001)     ;
(PID.TID 0000.0001) PTRACERS_useGMRedi = /* apply GM-Redi */
(PID.TID 0000.0001)                   T
(PID.TID 0000.0001)     ;
(PID.TID 0000.0001) PTRACERS_useDWNSLP = /* apply DOWN-SLOPE Flow */
(PID.TID 0000.0001)                   F
(PID.TID 0000.0001)     ;
(PID.TID 0000.0001) PTRACERS_useKPP = /* apply KPP scheme */
(PID.TID 0000.0001)                   T
(PID.TID 0000.0001)     ;
(PID.TID 0000.0001) PTRACERS_ref = /* Reference vertical profile */
(PID.TID 0000.0001)    23 @  0.000000000000000E+00              /* K =  1: 23 */
(PID.TID 0000.0001)     ;
(PID.TID 0000.0001) PTRACERS_EvPrRn =/* tracer conc. in Evap. & Rain */
(PID.TID 0000.0001)                 1.234567000000000E+05
(PID.TID 0000.0001)     ;
(PID.TID 0000.0001)  -----------------------------------
(PID.TID 0000.0001)  tracer number :  174
(PID.TID 0000.0001) PTRACERS_names = /* Tracer short name */
(PID.TID 0000.0001)               'fe03'
(PID.TID 0000.0001)     ;
(PID.TID 0000.0001) PTRACERS_long_names = /* Tracer long name */
(PID.TID 0000.0001)               ''
(PID.TID 0000.0001)     ;
(PID.TID 0000.0001) PTRACERS_ioLabel = /* tracer IO Label */
(PID.TID 0000.0001)               '1w'
(PID.TID 0000.0001)     ;
(PID.TID 0000.0001) PTRACERS_advScheme = /* Advection Scheme */
(PID.TID 0000.0001)                      33
(PID.TID 0000.0001)     ;
(PID.TID 0000.0001) PTRACERS_SOM_Advection = /* tracer uses SOM advection scheme */
(PID.TID 0000.0001)                   F
(PID.TID 0000.0001)     ;
(PID.TID 0000.0001) PTRACERS_ImplVertAdv = /* implicit vert. advection flag */
(PID.TID 0000.0001)                   F
(PID.TID 0000.0001)     ;
(PID.TID 0000.0001) PTRACERS_diffKh = /* Laplacian Diffusivity */
(PID.TID 0000.0001)                 0.000000000000000E+00
(PID.TID 0000.0001)     ;
(PID.TID 0000.0001) PTRACERS_diffK4 = /* Biharmonic Diffusivity */
(PID.TID 0000.0001)                 0.000000000000000E+00
(PID.TID 0000.0001)     ;
(PID.TID 0000.0001) PTRACERS_diffKrNr = /* Vertical Diffusivity */
(PID.TID 0000.0001)    23 @  1.000000000000000E-05              /* K =  1: 23 */
(PID.TID 0000.0001)     ;
(PID.TID 0000.0001) PTRACERS_useGMRedi = /* apply GM-Redi */
(PID.TID 0000.0001)                   T
(PID.TID 0000.0001)     ;
(PID.TID 0000.0001) PTRACERS_useDWNSLP = /* apply DOWN-SLOPE Flow */
(PID.TID 0000.0001)                   F
(PID.TID 0000.0001)     ;
(PID.TID 0000.0001) PTRACERS_useKPP = /* apply KPP scheme */
(PID.TID 0000.0001)                   T
(PID.TID 0000.0001)     ;
(PID.TID 0000.0001) PTRACERS_ref = /* Reference vertical profile */
(PID.TID 0000.0001)    23 @  0.000000000000000E+00              /* K =  1: 23 */
(PID.TID 0000.0001)     ;
(PID.TID 0000.0001) PTRACERS_EvPrRn =/* tracer conc. in Evap. & Rain */
(PID.TID 0000.0001)                 1.234567000000000E+05
(PID.TID 0000.0001)     ;
(PID.TID 0000.0001)  -----------------------------------
(PID.TID 0000.0001)  tracer number :  175
(PID.TID 0000.0001) PTRACERS_names = /* Tracer short name */
(PID.TID 0000.0001)               'fe04'
(PID.TID 0000.0001)     ;
(PID.TID 0000.0001) PTRACERS_long_names = /* Tracer long name */
(PID.TID 0000.0001)               ''
(PID.TID 0000.0001)     ;
(PID.TID 0000.0001) PTRACERS_ioLabel = /* tracer IO Label */
(PID.TID 0000.0001)               '1x'
(PID.TID 0000.0001)     ;
(PID.TID 0000.0001) PTRACERS_advScheme = /* Advection Scheme */
(PID.TID 0000.0001)                      33
(PID.TID 0000.0001)     ;
(PID.TID 0000.0001) PTRACERS_SOM_Advection = /* tracer uses SOM advection scheme */
(PID.TID 0000.0001)                   F
(PID.TID 0000.0001)     ;
(PID.TID 0000.0001) PTRACERS_ImplVertAdv = /* implicit vert. advection flag */
(PID.TID 0000.0001)                   F
(PID.TID 0000.0001)     ;
(PID.TID 0000.0001) PTRACERS_diffKh = /* Laplacian Diffusivity */
(PID.TID 0000.0001)                 0.000000000000000E+00
(PID.TID 0000.0001)     ;
(PID.TID 0000.0001) PTRACERS_diffK4 = /* Biharmonic Diffusivity */
(PID.TID 0000.0001)                 0.000000000000000E+00
(PID.TID 0000.0001)     ;
(PID.TID 0000.0001) PTRACERS_diffKrNr = /* Vertical Diffusivity */
(PID.TID 0000.0001)    23 @  1.000000000000000E-05              /* K =  1: 23 */
(PID.TID 0000.0001)     ;
(PID.TID 0000.0001) PTRACERS_useGMRedi = /* apply GM-Redi */
(PID.TID 0000.0001)                   T
(PID.TID 0000.0001)     ;
(PID.TID 0000.0001) PTRACERS_useDWNSLP = /* apply DOWN-SLOPE Flow */
(PID.TID 0000.0001)                   F
(PID.TID 0000.0001)     ;
(PID.TID 0000.0001) PTRACERS_useKPP = /* apply KPP scheme */
(PID.TID 0000.0001)                   T
(PID.TID 0000.0001)     ;
(PID.TID 0000.0001) PTRACERS_ref = /* Reference vertical profile */
(PID.TID 0000.0001)    23 @  0.000000000000000E+00              /* K =  1: 23 */
(PID.TID 0000.0001)     ;
(PID.TID 0000.0001) PTRACERS_EvPrRn =/* tracer conc. in Evap. & Rain */
(PID.TID 0000.0001)                 1.234567000000000E+05
(PID.TID 0000.0001)     ;
(PID.TID 0000.0001)  -----------------------------------
(PID.TID 0000.0001)  tracer number :  176
(PID.TID 0000.0001) PTRACERS_names = /* Tracer short name */
(PID.TID 0000.0001)               'fe05'
(PID.TID 0000.0001)     ;
(PID.TID 0000.0001) PTRACERS_long_names = /* Tracer long name */
(PID.TID 0000.0001)               ''
(PID.TID 0000.0001)     ;
(PID.TID 0000.0001) PTRACERS_ioLabel = /* tracer IO Label */
(PID.TID 0000.0001)               '1y'
(PID.TID 0000.0001)     ;
(PID.TID 0000.0001) PTRACERS_advScheme = /* Advection Scheme */
(PID.TID 0000.0001)                      33
(PID.TID 0000.0001)     ;
(PID.TID 0000.0001) PTRACERS_SOM_Advection = /* tracer uses SOM advection scheme */
(PID.TID 0000.0001)                   F
(PID.TID 0000.0001)     ;
(PID.TID 0000.0001) PTRACERS_ImplVertAdv = /* implicit vert. advection flag */
(PID.TID 0000.0001)                   F
(PID.TID 0000.0001)     ;
(PID.TID 0000.0001) PTRACERS_diffKh = /* Laplacian Diffusivity */
(PID.TID 0000.0001)                 0.000000000000000E+00
(PID.TID 0000.0001)     ;
(PID.TID 0000.0001) PTRACERS_diffK4 = /* Biharmonic Diffusivity */
(PID.TID 0000.0001)                 0.000000000000000E+00
(PID.TID 0000.0001)     ;
(PID.TID 0000.0001) PTRACERS_diffKrNr = /* Vertical Diffusivity */
(PID.TID 0000.0001)    23 @  1.000000000000000E-05              /* K =  1: 23 */
(PID.TID 0000.0001)     ;
(PID.TID 0000.0001) PTRACERS_useGMRedi = /* apply GM-Redi */
(PID.TID 0000.0001)                   T
(PID.TID 0000.0001)     ;
(PID.TID 0000.0001) PTRACERS_useDWNSLP = /* apply DOWN-SLOPE Flow */
(PID.TID 0000.0001)                   F
(PID.TID 0000.0001)     ;
(PID.TID 0000.0001) PTRACERS_useKPP = /* apply KPP scheme */
(PID.TID 0000.0001)                   T
(PID.TID 0000.0001)     ;
(PID.TID 0000.0001) PTRACERS_ref = /* Reference vertical profile */
(PID.TID 0000.0001)    23 @  0.000000000000000E+00              /* K =  1: 23 */
(PID.TID 0000.0001)     ;
(PID.TID 0000.0001) PTRACERS_EvPrRn =/* tracer conc. in Evap. & Rain */
(PID.TID 0000.0001)                 1.234567000000000E+05
(PID.TID 0000.0001)     ;
(PID.TID 0000.0001)  -----------------------------------
(PID.TID 0000.0001)  tracer number :  177
(PID.TID 0000.0001) PTRACERS_names = /* Tracer short name */
(PID.TID 0000.0001)               'fe06'
(PID.TID 0000.0001)     ;
(PID.TID 0000.0001) PTRACERS_long_names = /* Tracer long name */
(PID.TID 0000.0001)               ''
(PID.TID 0000.0001)     ;
(PID.TID 0000.0001) PTRACERS_ioLabel = /* tracer IO Label */
(PID.TID 0000.0001)               '1z'
(PID.TID 0000.0001)     ;
(PID.TID 0000.0001) PTRACERS_advScheme = /* Advection Scheme */
(PID.TID 0000.0001)                      33
(PID.TID 0000.0001)     ;
(PID.TID 0000.0001) PTRACERS_SOM_Advection = /* tracer uses SOM advection scheme */
(PID.TID 0000.0001)                   F
(PID.TID 0000.0001)     ;
(PID.TID 0000.0001) PTRACERS_ImplVertAdv = /* implicit vert. advection flag */
(PID.TID 0000.0001)                   F
(PID.TID 0000.0001)     ;
(PID.TID 0000.0001) PTRACERS_diffKh = /* Laplacian Diffusivity */
(PID.TID 0000.0001)                 0.000000000000000E+00
(PID.TID 0000.0001)     ;
(PID.TID 0000.0001) PTRACERS_diffK4 = /* Biharmonic Diffusivity */
(PID.TID 0000.0001)                 0.000000000000000E+00
(PID.TID 0000.0001)     ;
(PID.TID 0000.0001) PTRACERS_diffKrNr = /* Vertical Diffusivity */
(PID.TID 0000.0001)    23 @  1.000000000000000E-05              /* K =  1: 23 */
(PID.TID 0000.0001)     ;
(PID.TID 0000.0001) PTRACERS_useGMRedi = /* apply GM-Redi */
(PID.TID 0000.0001)                   T
(PID.TID 0000.0001)     ;
(PID.TID 0000.0001) PTRACERS_useDWNSLP = /* apply DOWN-SLOPE Flow */
(PID.TID 0000.0001)                   F
(PID.TID 0000.0001)     ;
(PID.TID 0000.0001) PTRACERS_useKPP = /* apply KPP scheme */
(PID.TID 0000.0001)                   T
(PID.TID 0000.0001)     ;
(PID.TID 0000.0001) PTRACERS_ref = /* Reference vertical profile */
(PID.TID 0000.0001)    23 @  0.000000000000000E+00              /* K =  1: 23 */
(PID.TID 0000.0001)     ;
(PID.TID 0000.0001) PTRACERS_EvPrRn =/* tracer conc. in Evap. & Rain */
(PID.TID 0000.0001)                 1.234567000000000E+05
(PID.TID 0000.0001)     ;
(PID.TID 0000.0001)  -----------------------------------
(PID.TID 0000.0001)  tracer number :  178
(PID.TID 0000.0001) PTRACERS_names = /* Tracer short name */
(PID.TID 0000.0001)               'fe07'
(PID.TID 0000.0001)     ;
(PID.TID 0000.0001) PTRACERS_long_names = /* Tracer long name */
(PID.TID 0000.0001)               ''
(PID.TID 0000.0001)     ;
(PID.TID 0000.0001) PTRACERS_ioLabel = /* tracer IO Label */
(PID.TID 0000.0001)               '1A'
(PID.TID 0000.0001)     ;
(PID.TID 0000.0001) PTRACERS_advScheme = /* Advection Scheme */
(PID.TID 0000.0001)                      33
(PID.TID 0000.0001)     ;
(PID.TID 0000.0001) PTRACERS_SOM_Advection = /* tracer uses SOM advection scheme */
(PID.TID 0000.0001)                   F
(PID.TID 0000.0001)     ;
(PID.TID 0000.0001) PTRACERS_ImplVertAdv = /* implicit vert. advection flag */
(PID.TID 0000.0001)                   F
(PID.TID 0000.0001)     ;
(PID.TID 0000.0001) PTRACERS_diffKh = /* Laplacian Diffusivity */
(PID.TID 0000.0001)                 0.000000000000000E+00
(PID.TID 0000.0001)     ;
(PID.TID 0000.0001) PTRACERS_diffK4 = /* Biharmonic Diffusivity */
(PID.TID 0000.0001)                 0.000000000000000E+00
(PID.TID 0000.0001)     ;
(PID.TID 0000.0001) PTRACERS_diffKrNr = /* Vertical Diffusivity */
(PID.TID 0000.0001)    23 @  1.000000000000000E-05              /* K =  1: 23 */
(PID.TID 0000.0001)     ;
(PID.TID 0000.0001) PTRACERS_useGMRedi = /* apply GM-Redi */
(PID.TID 0000.0001)                   T
(PID.TID 0000.0001)     ;
(PID.TID 0000.0001) PTRACERS_useDWNSLP = /* apply DOWN-SLOPE Flow */
(PID.TID 0000.0001)                   F
(PID.TID 0000.0001)     ;
(PID.TID 0000.0001) PTRACERS_useKPP = /* apply KPP scheme */
(PID.TID 0000.0001)                   T
(PID.TID 0000.0001)     ;
(PID.TID 0000.0001) PTRACERS_ref = /* Reference vertical profile */
(PID.TID 0000.0001)    23 @  0.000000000000000E+00              /* K =  1: 23 */
(PID.TID 0000.0001)     ;
(PID.TID 0000.0001) PTRACERS_EvPrRn =/* tracer conc. in Evap. & Rain */
(PID.TID 0000.0001)                 1.234567000000000E+05
(PID.TID 0000.0001)     ;
(PID.TID 0000.0001)  -----------------------------------
(PID.TID 0000.0001)  tracer number :  179
(PID.TID 0000.0001) PTRACERS_names = /* Tracer short name */
(PID.TID 0000.0001)               'fe08'
(PID.TID 0000.0001)     ;
(PID.TID 0000.0001) PTRACERS_long_names = /* Tracer long name */
(PID.TID 0000.0001)               ''
(PID.TID 0000.0001)     ;
(PID.TID 0000.0001) PTRACERS_ioLabel = /* tracer IO Label */
(PID.TID 0000.0001)               '1B'
(PID.TID 0000.0001)     ;
(PID.TID 0000.0001) PTRACERS_advScheme = /* Advection Scheme */
(PID.TID 0000.0001)                      33
(PID.TID 0000.0001)     ;
(PID.TID 0000.0001) PTRACERS_SOM_Advection = /* tracer uses SOM advection scheme */
(PID.TID 0000.0001)                   F
(PID.TID 0000.0001)     ;
(PID.TID 0000.0001) PTRACERS_ImplVertAdv = /* implicit vert. advection flag */
(PID.TID 0000.0001)                   F
(PID.TID 0000.0001)     ;
(PID.TID 0000.0001) PTRACERS_diffKh = /* Laplacian Diffusivity */
(PID.TID 0000.0001)                 0.000000000000000E+00
(PID.TID 0000.0001)     ;
(PID.TID 0000.0001) PTRACERS_diffK4 = /* Biharmonic Diffusivity */
(PID.TID 0000.0001)                 0.000000000000000E+00
(PID.TID 0000.0001)     ;
(PID.TID 0000.0001) PTRACERS_diffKrNr = /* Vertical Diffusivity */
(PID.TID 0000.0001)    23 @  1.000000000000000E-05              /* K =  1: 23 */
(PID.TID 0000.0001)     ;
(PID.TID 0000.0001) PTRACERS_useGMRedi = /* apply GM-Redi */
(PID.TID 0000.0001)                   T
(PID.TID 0000.0001)     ;
(PID.TID 0000.0001) PTRACERS_useDWNSLP = /* apply DOWN-SLOPE Flow */
(PID.TID 0000.0001)                   F
(PID.TID 0000.0001)     ;
(PID.TID 0000.0001) PTRACERS_useKPP = /* apply KPP scheme */
(PID.TID 0000.0001)                   T
(PID.TID 0000.0001)     ;
(PID.TID 0000.0001) PTRACERS_ref = /* Reference vertical profile */
(PID.TID 0000.0001)    23 @  0.000000000000000E+00              /* K =  1: 23 */
(PID.TID 0000.0001)     ;
(PID.TID 0000.0001) PTRACERS_EvPrRn =/* tracer conc. in Evap. & Rain */
(PID.TID 0000.0001)                 1.234567000000000E+05
(PID.TID 0000.0001)     ;
(PID.TID 0000.0001)  -----------------------------------
(PID.TID 0000.0001)  tracer number :  180
(PID.TID 0000.0001) PTRACERS_names = /* Tracer short name */
(PID.TID 0000.0001)               'fe09'
(PID.TID 0000.0001)     ;
(PID.TID 0000.0001) PTRACERS_long_names = /* Tracer long name */
(PID.TID 0000.0001)               ''
(PID.TID 0000.0001)     ;
(PID.TID 0000.0001) PTRACERS_ioLabel = /* tracer IO Label */
(PID.TID 0000.0001)               '1C'
(PID.TID 0000.0001)     ;
(PID.TID 0000.0001) PTRACERS_advScheme = /* Advection Scheme */
(PID.TID 0000.0001)                      33
(PID.TID 0000.0001)     ;
(PID.TID 0000.0001) PTRACERS_SOM_Advection = /* tracer uses SOM advection scheme */
(PID.TID 0000.0001)                   F
(PID.TID 0000.0001)     ;
(PID.TID 0000.0001) PTRACERS_ImplVertAdv = /* implicit vert. advection flag */
(PID.TID 0000.0001)                   F
(PID.TID 0000.0001)     ;
(PID.TID 0000.0001) PTRACERS_diffKh = /* Laplacian Diffusivity */
(PID.TID 0000.0001)                 0.000000000000000E+00
(PID.TID 0000.0001)     ;
(PID.TID 0000.0001) PTRACERS_diffK4 = /* Biharmonic Diffusivity */
(PID.TID 0000.0001)                 0.000000000000000E+00
(PID.TID 0000.0001)     ;
(PID.TID 0000.0001) PTRACERS_diffKrNr = /* Vertical Diffusivity */
(PID.TID 0000.0001)    23 @  1.000000000000000E-05              /* K =  1: 23 */
(PID.TID 0000.0001)     ;
(PID.TID 0000.0001) PTRACERS_useGMRedi = /* apply GM-Redi */
(PID.TID 0000.0001)                   T
(PID.TID 0000.0001)     ;
(PID.TID 0000.0001) PTRACERS_useDWNSLP = /* apply DOWN-SLOPE Flow */
(PID.TID 0000.0001)                   F
(PID.TID 0000.0001)     ;
(PID.TID 0000.0001) PTRACERS_useKPP = /* apply KPP scheme */
(PID.TID 0000.0001)                   T
(PID.TID 0000.0001)     ;
(PID.TID 0000.0001) PTRACERS_ref = /* Reference vertical profile */
(PID.TID 0000.0001)    23 @  0.000000000000000E+00              /* K =  1: 23 */
(PID.TID 0000.0001)     ;
(PID.TID 0000.0001) PTRACERS_EvPrRn =/* tracer conc. in Evap. & Rain */
(PID.TID 0000.0001)                 1.234567000000000E+05
(PID.TID 0000.0001)     ;
(PID.TID 0000.0001)  -----------------------------------
(PID.TID 0000.0001)  tracer number :  181
(PID.TID 0000.0001) PTRACERS_names = /* Tracer short name */
(PID.TID 0000.0001)               'fe10'
(PID.TID 0000.0001)     ;
(PID.TID 0000.0001) PTRACERS_long_names = /* Tracer long name */
(PID.TID 0000.0001)               ''
(PID.TID 0000.0001)     ;
(PID.TID 0000.0001) PTRACERS_ioLabel = /* tracer IO Label */
(PID.TID 0000.0001)               '1D'
(PID.TID 0000.0001)     ;
(PID.TID 0000.0001) PTRACERS_advScheme = /* Advection Scheme */
(PID.TID 0000.0001)                      33
(PID.TID 0000.0001)     ;
(PID.TID 0000.0001) PTRACERS_SOM_Advection = /* tracer uses SOM advection scheme */
(PID.TID 0000.0001)                   F
(PID.TID 0000.0001)     ;
(PID.TID 0000.0001) PTRACERS_ImplVertAdv = /* implicit vert. advection flag */
(PID.TID 0000.0001)                   F
(PID.TID 0000.0001)     ;
(PID.TID 0000.0001) PTRACERS_diffKh = /* Laplacian Diffusivity */
(PID.TID 0000.0001)                 0.000000000000000E+00
(PID.TID 0000.0001)     ;
(PID.TID 0000.0001) PTRACERS_diffK4 = /* Biharmonic Diffusivity */
(PID.TID 0000.0001)                 0.000000000000000E+00
(PID.TID 0000.0001)     ;
(PID.TID 0000.0001) PTRACERS_diffKrNr = /* Vertical Diffusivity */
(PID.TID 0000.0001)    23 @  1.000000000000000E-05              /* K =  1: 23 */
(PID.TID 0000.0001)     ;
(PID.TID 0000.0001) PTRACERS_useGMRedi = /* apply GM-Redi */
(PID.TID 0000.0001)                   T
(PID.TID 0000.0001)     ;
(PID.TID 0000.0001) PTRACERS_useDWNSLP = /* apply DOWN-SLOPE Flow */
(PID.TID 0000.0001)                   F
(PID.TID 0000.0001)     ;
(PID.TID 0000.0001) PTRACERS_useKPP = /* apply KPP scheme */
(PID.TID 0000.0001)                   T
(PID.TID 0000.0001)     ;
(PID.TID 0000.0001) PTRACERS_ref = /* Reference vertical profile */
(PID.TID 0000.0001)    23 @  0.000000000000000E+00              /* K =  1: 23 */
(PID.TID 0000.0001)     ;
(PID.TID 0000.0001) PTRACERS_EvPrRn =/* tracer conc. in Evap. & Rain */
(PID.TID 0000.0001)                 1.234567000000000E+05
(PID.TID 0000.0001)     ;
(PID.TID 0000.0001)  -----------------------------------
(PID.TID 0000.0001)  tracer number :  182
(PID.TID 0000.0001) PTRACERS_names = /* Tracer short name */
(PID.TID 0000.0001)               'fe11'
(PID.TID 0000.0001)     ;
(PID.TID 0000.0001) PTRACERS_long_names = /* Tracer long name */
(PID.TID 0000.0001)               ''
(PID.TID 0000.0001)     ;
(PID.TID 0000.0001) PTRACERS_ioLabel = /* tracer IO Label */
(PID.TID 0000.0001)               '1E'
(PID.TID 0000.0001)     ;
(PID.TID 0000.0001) PTRACERS_advScheme = /* Advection Scheme */
(PID.TID 0000.0001)                      33
(PID.TID 0000.0001)     ;
(PID.TID 0000.0001) PTRACERS_SOM_Advection = /* tracer uses SOM advection scheme */
(PID.TID 0000.0001)                   F
(PID.TID 0000.0001)     ;
(PID.TID 0000.0001) PTRACERS_ImplVertAdv = /* implicit vert. advection flag */
(PID.TID 0000.0001)                   F
(PID.TID 0000.0001)     ;
(PID.TID 0000.0001) PTRACERS_diffKh = /* Laplacian Diffusivity */
(PID.TID 0000.0001)                 0.000000000000000E+00
(PID.TID 0000.0001)     ;
(PID.TID 0000.0001) PTRACERS_diffK4 = /* Biharmonic Diffusivity */
(PID.TID 0000.0001)                 0.000000000000000E+00
(PID.TID 0000.0001)     ;
(PID.TID 0000.0001) PTRACERS_diffKrNr = /* Vertical Diffusivity */
(PID.TID 0000.0001)    23 @  1.000000000000000E-05              /* K =  1: 23 */
(PID.TID 0000.0001)     ;
(PID.TID 0000.0001) PTRACERS_useGMRedi = /* apply GM-Redi */
(PID.TID 0000.0001)                   T
(PID.TID 0000.0001)     ;
(PID.TID 0000.0001) PTRACERS_useDWNSLP = /* apply DOWN-SLOPE Flow */
(PID.TID 0000.0001)                   F
(PID.TID 0000.0001)     ;
(PID.TID 0000.0001) PTRACERS_useKPP = /* apply KPP scheme */
(PID.TID 0000.0001)                   T
(PID.TID 0000.0001)     ;
(PID.TID 0000.0001) PTRACERS_ref = /* Reference vertical profile */
(PID.TID 0000.0001)    23 @  0.000000000000000E+00              /* K =  1: 23 */
(PID.TID 0000.0001)     ;
(PID.TID 0000.0001) PTRACERS_EvPrRn =/* tracer conc. in Evap. & Rain */
(PID.TID 0000.0001)                 1.234567000000000E+05
(PID.TID 0000.0001)     ;
(PID.TID 0000.0001)  -----------------------------------
(PID.TID 0000.0001)  tracer number :  183
(PID.TID 0000.0001) PTRACERS_names = /* Tracer short name */
(PID.TID 0000.0001)               'fe12'
(PID.TID 0000.0001)     ;
(PID.TID 0000.0001) PTRACERS_long_names = /* Tracer long name */
(PID.TID 0000.0001)               ''
(PID.TID 0000.0001)     ;
(PID.TID 0000.0001) PTRACERS_ioLabel = /* tracer IO Label */
(PID.TID 0000.0001)               '1F'
(PID.TID 0000.0001)     ;
(PID.TID 0000.0001) PTRACERS_advScheme = /* Advection Scheme */
(PID.TID 0000.0001)                      33
(PID.TID 0000.0001)     ;
(PID.TID 0000.0001) PTRACERS_SOM_Advection = /* tracer uses SOM advection scheme */
(PID.TID 0000.0001)                   F
(PID.TID 0000.0001)     ;
(PID.TID 0000.0001) PTRACERS_ImplVertAdv = /* implicit vert. advection flag */
(PID.TID 0000.0001)                   F
(PID.TID 0000.0001)     ;
(PID.TID 0000.0001) PTRACERS_diffKh = /* Laplacian Diffusivity */
(PID.TID 0000.0001)                 0.000000000000000E+00
(PID.TID 0000.0001)     ;
(PID.TID 0000.0001) PTRACERS_diffK4 = /* Biharmonic Diffusivity */
(PID.TID 0000.0001)                 0.000000000000000E+00
(PID.TID 0000.0001)     ;
(PID.TID 0000.0001) PTRACERS_diffKrNr = /* Vertical Diffusivity */
(PID.TID 0000.0001)    23 @  1.000000000000000E-05              /* K =  1: 23 */
(PID.TID 0000.0001)     ;
(PID.TID 0000.0001) PTRACERS_useGMRedi = /* apply GM-Redi */
(PID.TID 0000.0001)                   T
(PID.TID 0000.0001)     ;
(PID.TID 0000.0001) PTRACERS_useDWNSLP = /* apply DOWN-SLOPE Flow */
(PID.TID 0000.0001)                   F
(PID.TID 0000.0001)     ;
(PID.TID 0000.0001) PTRACERS_useKPP = /* apply KPP scheme */
(PID.TID 0000.0001)                   T
(PID.TID 0000.0001)     ;
(PID.TID 0000.0001) PTRACERS_ref = /* Reference vertical profile */
(PID.TID 0000.0001)    23 @  0.000000000000000E+00              /* K =  1: 23 */
(PID.TID 0000.0001)     ;
(PID.TID 0000.0001) PTRACERS_EvPrRn =/* tracer conc. in Evap. & Rain */
(PID.TID 0000.0001)                 1.234567000000000E+05
(PID.TID 0000.0001)     ;
(PID.TID 0000.0001)  -----------------------------------
(PID.TID 0000.0001)  tracer number :  184
(PID.TID 0000.0001) PTRACERS_names = /* Tracer short name */
(PID.TID 0000.0001)               'fe13'
(PID.TID 0000.0001)     ;
(PID.TID 0000.0001) PTRACERS_long_names = /* Tracer long name */
(PID.TID 0000.0001)               ''
(PID.TID 0000.0001)     ;
(PID.TID 0000.0001) PTRACERS_ioLabel = /* tracer IO Label */
(PID.TID 0000.0001)               '1G'
(PID.TID 0000.0001)     ;
(PID.TID 0000.0001) PTRACERS_advScheme = /* Advection Scheme */
(PID.TID 0000.0001)                      33
(PID.TID 0000.0001)     ;
(PID.TID 0000.0001) PTRACERS_SOM_Advection = /* tracer uses SOM advection scheme */
(PID.TID 0000.0001)                   F
(PID.TID 0000.0001)     ;
(PID.TID 0000.0001) PTRACERS_ImplVertAdv = /* implicit vert. advection flag */
(PID.TID 0000.0001)                   F
(PID.TID 0000.0001)     ;
(PID.TID 0000.0001) PTRACERS_diffKh = /* Laplacian Diffusivity */
(PID.TID 0000.0001)                 0.000000000000000E+00
(PID.TID 0000.0001)     ;
(PID.TID 0000.0001) PTRACERS_diffK4 = /* Biharmonic Diffusivity */
(PID.TID 0000.0001)                 0.000000000000000E+00
(PID.TID 0000.0001)     ;
(PID.TID 0000.0001) PTRACERS_diffKrNr = /* Vertical Diffusivity */
(PID.TID 0000.0001)    23 @  1.000000000000000E-05              /* K =  1: 23 */
(PID.TID 0000.0001)     ;
(PID.TID 0000.0001) PTRACERS_useGMRedi = /* apply GM-Redi */
(PID.TID 0000.0001)                   T
(PID.TID 0000.0001)     ;
(PID.TID 0000.0001) PTRACERS_useDWNSLP = /* apply DOWN-SLOPE Flow */
(PID.TID 0000.0001)                   F
(PID.TID 0000.0001)     ;
(PID.TID 0000.0001) PTRACERS_useKPP = /* apply KPP scheme */
(PID.TID 0000.0001)                   T
(PID.TID 0000.0001)     ;
(PID.TID 0000.0001) PTRACERS_ref = /* Reference vertical profile */
(PID.TID 0000.0001)    23 @  0.000000000000000E+00              /* K =  1: 23 */
(PID.TID 0000.0001)     ;
(PID.TID 0000.0001) PTRACERS_EvPrRn =/* tracer conc. in Evap. & Rain */
(PID.TID 0000.0001)                 1.234567000000000E+05
(PID.TID 0000.0001)     ;
(PID.TID 0000.0001)  -----------------------------------
(PID.TID 0000.0001)  tracer number :  185
(PID.TID 0000.0001) PTRACERS_names = /* Tracer short name */
(PID.TID 0000.0001)               'fe14'
(PID.TID 0000.0001)     ;
(PID.TID 0000.0001) PTRACERS_long_names = /* Tracer long name */
(PID.TID 0000.0001)               ''
(PID.TID 0000.0001)     ;
(PID.TID 0000.0001) PTRACERS_ioLabel = /* tracer IO Label */
(PID.TID 0000.0001)               '1H'
(PID.TID 0000.0001)     ;
(PID.TID 0000.0001) PTRACERS_advScheme = /* Advection Scheme */
(PID.TID 0000.0001)                      33
(PID.TID 0000.0001)     ;
(PID.TID 0000.0001) PTRACERS_SOM_Advection = /* tracer uses SOM advection scheme */
(PID.TID 0000.0001)                   F
(PID.TID 0000.0001)     ;
(PID.TID 0000.0001) PTRACERS_ImplVertAdv = /* implicit vert. advection flag */
(PID.TID 0000.0001)                   F
(PID.TID 0000.0001)     ;
(PID.TID 0000.0001) PTRACERS_diffKh = /* Laplacian Diffusivity */
(PID.TID 0000.0001)                 0.000000000000000E+00
(PID.TID 0000.0001)     ;
(PID.TID 0000.0001) PTRACERS_diffK4 = /* Biharmonic Diffusivity */
(PID.TID 0000.0001)                 0.000000000000000E+00
(PID.TID 0000.0001)     ;
(PID.TID 0000.0001) PTRACERS_diffKrNr = /* Vertical Diffusivity */
(PID.TID 0000.0001)    23 @  1.000000000000000E-05              /* K =  1: 23 */
(PID.TID 0000.0001)     ;
(PID.TID 0000.0001) PTRACERS_useGMRedi = /* apply GM-Redi */
(PID.TID 0000.0001)                   T
(PID.TID 0000.0001)     ;
(PID.TID 0000.0001) PTRACERS_useDWNSLP = /* apply DOWN-SLOPE Flow */
(PID.TID 0000.0001)                   F
(PID.TID 0000.0001)     ;
(PID.TID 0000.0001) PTRACERS_useKPP = /* apply KPP scheme */
(PID.TID 0000.0001)                   T
(PID.TID 0000.0001)     ;
(PID.TID 0000.0001) PTRACERS_ref = /* Reference vertical profile */
(PID.TID 0000.0001)    23 @  0.000000000000000E+00              /* K =  1: 23 */
(PID.TID 0000.0001)     ;
(PID.TID 0000.0001) PTRACERS_EvPrRn =/* tracer conc. in Evap. & Rain */
(PID.TID 0000.0001)                 1.234567000000000E+05
(PID.TID 0000.0001)     ;
(PID.TID 0000.0001)  -----------------------------------
(PID.TID 0000.0001)  tracer number :  186
(PID.TID 0000.0001) PTRACERS_names = /* Tracer short name */
(PID.TID 0000.0001)               'fe15'
(PID.TID 0000.0001)     ;
(PID.TID 0000.0001) PTRACERS_long_names = /* Tracer long name */
(PID.TID 0000.0001)               ''
(PID.TID 0000.0001)     ;
(PID.TID 0000.0001) PTRACERS_ioLabel = /* tracer IO Label */
(PID.TID 0000.0001)               '1I'
(PID.TID 0000.0001)     ;
(PID.TID 0000.0001) PTRACERS_advScheme = /* Advection Scheme */
(PID.TID 0000.0001)                      33
(PID.TID 0000.0001)     ;
(PID.TID 0000.0001) PTRACERS_SOM_Advection = /* tracer uses SOM advection scheme */
(PID.TID 0000.0001)                   F
(PID.TID 0000.0001)     ;
(PID.TID 0000.0001) PTRACERS_ImplVertAdv = /* implicit vert. advection flag */
(PID.TID 0000.0001)                   F
(PID.TID 0000.0001)     ;
(PID.TID 0000.0001) PTRACERS_diffKh = /* Laplacian Diffusivity */
(PID.TID 0000.0001)                 0.000000000000000E+00
(PID.TID 0000.0001)     ;
(PID.TID 0000.0001) PTRACERS_diffK4 = /* Biharmonic Diffusivity */
(PID.TID 0000.0001)                 0.000000000000000E+00
(PID.TID 0000.0001)     ;
(PID.TID 0000.0001) PTRACERS_diffKrNr = /* Vertical Diffusivity */
(PID.TID 0000.0001)    23 @  1.000000000000000E-05              /* K =  1: 23 */
(PID.TID 0000.0001)     ;
(PID.TID 0000.0001) PTRACERS_useGMRedi = /* apply GM-Redi */
(PID.TID 0000.0001)                   T
(PID.TID 0000.0001)     ;
(PID.TID 0000.0001) PTRACERS_useDWNSLP = /* apply DOWN-SLOPE Flow */
(PID.TID 0000.0001)                   F
(PID.TID 0000.0001)     ;
(PID.TID 0000.0001) PTRACERS_useKPP = /* apply KPP scheme */
(PID.TID 0000.0001)                   T
(PID.TID 0000.0001)     ;
(PID.TID 0000.0001) PTRACERS_ref = /* Reference vertical profile */
(PID.TID 0000.0001)    23 @  0.000000000000000E+00              /* K =  1: 23 */
(PID.TID 0000.0001)     ;
(PID.TID 0000.0001) PTRACERS_EvPrRn =/* tracer conc. in Evap. & Rain */
(PID.TID 0000.0001)                 1.234567000000000E+05
(PID.TID 0000.0001)     ;
(PID.TID 0000.0001)  -----------------------------------
(PID.TID 0000.0001)  tracer number :  187
(PID.TID 0000.0001) PTRACERS_names = /* Tracer short name */
(PID.TID 0000.0001)               'fe16'
(PID.TID 0000.0001)     ;
(PID.TID 0000.0001) PTRACERS_long_names = /* Tracer long name */
(PID.TID 0000.0001)               ''
(PID.TID 0000.0001)     ;
(PID.TID 0000.0001) PTRACERS_ioLabel = /* tracer IO Label */
(PID.TID 0000.0001)               '1J'
(PID.TID 0000.0001)     ;
(PID.TID 0000.0001) PTRACERS_advScheme = /* Advection Scheme */
(PID.TID 0000.0001)                      33
(PID.TID 0000.0001)     ;
(PID.TID 0000.0001) PTRACERS_SOM_Advection = /* tracer uses SOM advection scheme */
(PID.TID 0000.0001)                   F
(PID.TID 0000.0001)     ;
(PID.TID 0000.0001) PTRACERS_ImplVertAdv = /* implicit vert. advection flag */
(PID.TID 0000.0001)                   F
(PID.TID 0000.0001)     ;
(PID.TID 0000.0001) PTRACERS_diffKh = /* Laplacian Diffusivity */
(PID.TID 0000.0001)                 0.000000000000000E+00
(PID.TID 0000.0001)     ;
(PID.TID 0000.0001) PTRACERS_diffK4 = /* Biharmonic Diffusivity */
(PID.TID 0000.0001)                 0.000000000000000E+00
(PID.TID 0000.0001)     ;
(PID.TID 0000.0001) PTRACERS_diffKrNr = /* Vertical Diffusivity */
(PID.TID 0000.0001)    23 @  1.000000000000000E-05              /* K =  1: 23 */
(PID.TID 0000.0001)     ;
(PID.TID 0000.0001) PTRACERS_useGMRedi = /* apply GM-Redi */
(PID.TID 0000.0001)                   T
(PID.TID 0000.0001)     ;
(PID.TID 0000.0001) PTRACERS_useDWNSLP = /* apply DOWN-SLOPE Flow */
(PID.TID 0000.0001)                   F
(PID.TID 0000.0001)     ;
(PID.TID 0000.0001) PTRACERS_useKPP = /* apply KPP scheme */
(PID.TID 0000.0001)                   T
(PID.TID 0000.0001)     ;
(PID.TID 0000.0001) PTRACERS_ref = /* Reference vertical profile */
(PID.TID 0000.0001)    23 @  0.000000000000000E+00              /* K =  1: 23 */
(PID.TID 0000.0001)     ;
(PID.TID 0000.0001) PTRACERS_EvPrRn =/* tracer conc. in Evap. & Rain */
(PID.TID 0000.0001)                 1.234567000000000E+05
(PID.TID 0000.0001)     ;
(PID.TID 0000.0001)  -----------------------------------
(PID.TID 0000.0001)  tracer number :  188
(PID.TID 0000.0001) PTRACERS_names = /* Tracer short name */
(PID.TID 0000.0001)               'fe17'
(PID.TID 0000.0001)     ;
(PID.TID 0000.0001) PTRACERS_long_names = /* Tracer long name */
(PID.TID 0000.0001)               ''
(PID.TID 0000.0001)     ;
(PID.TID 0000.0001) PTRACERS_ioLabel = /* tracer IO Label */
(PID.TID 0000.0001)               '1K'
(PID.TID 0000.0001)     ;
(PID.TID 0000.0001) PTRACERS_advScheme = /* Advection Scheme */
(PID.TID 0000.0001)                      33
(PID.TID 0000.0001)     ;
(PID.TID 0000.0001) PTRACERS_SOM_Advection = /* tracer uses SOM advection scheme */
(PID.TID 0000.0001)                   F
(PID.TID 0000.0001)     ;
(PID.TID 0000.0001) PTRACERS_ImplVertAdv = /* implicit vert. advection flag */
(PID.TID 0000.0001)                   F
(PID.TID 0000.0001)     ;
(PID.TID 0000.0001) PTRACERS_diffKh = /* Laplacian Diffusivity */
(PID.TID 0000.0001)                 0.000000000000000E+00
(PID.TID 0000.0001)     ;
(PID.TID 0000.0001) PTRACERS_diffK4 = /* Biharmonic Diffusivity */
(PID.TID 0000.0001)                 0.000000000000000E+00
(PID.TID 0000.0001)     ;
(PID.TID 0000.0001) PTRACERS_diffKrNr = /* Vertical Diffusivity */
(PID.TID 0000.0001)    23 @  1.000000000000000E-05              /* K =  1: 23 */
(PID.TID 0000.0001)     ;
(PID.TID 0000.0001) PTRACERS_useGMRedi = /* apply GM-Redi */
(PID.TID 0000.0001)                   T
(PID.TID 0000.0001)     ;
(PID.TID 0000.0001) PTRACERS_useDWNSLP = /* apply DOWN-SLOPE Flow */
(PID.TID 0000.0001)                   F
(PID.TID 0000.0001)     ;
(PID.TID 0000.0001) PTRACERS_useKPP = /* apply KPP scheme */
(PID.TID 0000.0001)                   T
(PID.TID 0000.0001)     ;
(PID.TID 0000.0001) PTRACERS_ref = /* Reference vertical profile */
(PID.TID 0000.0001)    23 @  0.000000000000000E+00              /* K =  1: 23 */
(PID.TID 0000.0001)     ;
(PID.TID 0000.0001) PTRACERS_EvPrRn =/* tracer conc. in Evap. & Rain */
(PID.TID 0000.0001)                 1.234567000000000E+05
(PID.TID 0000.0001)     ;
(PID.TID 0000.0001)  -----------------------------------
(PID.TID 0000.0001)  tracer number :  189
(PID.TID 0000.0001) PTRACERS_names = /* Tracer short name */
(PID.TID 0000.0001)               'fe18'
(PID.TID 0000.0001)     ;
(PID.TID 0000.0001) PTRACERS_long_names = /* Tracer long name */
(PID.TID 0000.0001)               ''
(PID.TID 0000.0001)     ;
(PID.TID 0000.0001) PTRACERS_ioLabel = /* tracer IO Label */
(PID.TID 0000.0001)               '1L'
(PID.TID 0000.0001)     ;
(PID.TID 0000.0001) PTRACERS_advScheme = /* Advection Scheme */
(PID.TID 0000.0001)                      33
(PID.TID 0000.0001)     ;
(PID.TID 0000.0001) PTRACERS_SOM_Advection = /* tracer uses SOM advection scheme */
(PID.TID 0000.0001)                   F
(PID.TID 0000.0001)     ;
(PID.TID 0000.0001) PTRACERS_ImplVertAdv = /* implicit vert. advection flag */
(PID.TID 0000.0001)                   F
(PID.TID 0000.0001)     ;
(PID.TID 0000.0001) PTRACERS_diffKh = /* Laplacian Diffusivity */
(PID.TID 0000.0001)                 0.000000000000000E+00
(PID.TID 0000.0001)     ;
(PID.TID 0000.0001) PTRACERS_diffK4 = /* Biharmonic Diffusivity */
(PID.TID 0000.0001)                 0.000000000000000E+00
(PID.TID 0000.0001)     ;
(PID.TID 0000.0001) PTRACERS_diffKrNr = /* Vertical Diffusivity */
(PID.TID 0000.0001)    23 @  1.000000000000000E-05              /* K =  1: 23 */
(PID.TID 0000.0001)     ;
(PID.TID 0000.0001) PTRACERS_useGMRedi = /* apply GM-Redi */
(PID.TID 0000.0001)                   T
(PID.TID 0000.0001)     ;
(PID.TID 0000.0001) PTRACERS_useDWNSLP = /* apply DOWN-SLOPE Flow */
(PID.TID 0000.0001)                   F
(PID.TID 0000.0001)     ;
(PID.TID 0000.0001) PTRACERS_useKPP = /* apply KPP scheme */
(PID.TID 0000.0001)                   T
(PID.TID 0000.0001)     ;
(PID.TID 0000.0001) PTRACERS_ref = /* Reference vertical profile */
(PID.TID 0000.0001)    23 @  0.000000000000000E+00              /* K =  1: 23 */
(PID.TID 0000.0001)     ;
(PID.TID 0000.0001) PTRACERS_EvPrRn =/* tracer conc. in Evap. & Rain */
(PID.TID 0000.0001)                 1.234567000000000E+05
(PID.TID 0000.0001)     ;
(PID.TID 0000.0001)  -----------------------------------
(PID.TID 0000.0001)  tracer number :  190
(PID.TID 0000.0001) PTRACERS_names = /* Tracer short name */
(PID.TID 0000.0001)               'fe19'
(PID.TID 0000.0001)     ;
(PID.TID 0000.0001) PTRACERS_long_names = /* Tracer long name */
(PID.TID 0000.0001)               ''
(PID.TID 0000.0001)     ;
(PID.TID 0000.0001) PTRACERS_ioLabel = /* tracer IO Label */
(PID.TID 0000.0001)               '1M'
(PID.TID 0000.0001)     ;
(PID.TID 0000.0001) PTRACERS_advScheme = /* Advection Scheme */
(PID.TID 0000.0001)                      33
(PID.TID 0000.0001)     ;
(PID.TID 0000.0001) PTRACERS_SOM_Advection = /* tracer uses SOM advection scheme */
(PID.TID 0000.0001)                   F
(PID.TID 0000.0001)     ;
(PID.TID 0000.0001) PTRACERS_ImplVertAdv = /* implicit vert. advection flag */
(PID.TID 0000.0001)                   F
(PID.TID 0000.0001)     ;
(PID.TID 0000.0001) PTRACERS_diffKh = /* Laplacian Diffusivity */
(PID.TID 0000.0001)                 0.000000000000000E+00
(PID.TID 0000.0001)     ;
(PID.TID 0000.0001) PTRACERS_diffK4 = /* Biharmonic Diffusivity */
(PID.TID 0000.0001)                 0.000000000000000E+00
(PID.TID 0000.0001)     ;
(PID.TID 0000.0001) PTRACERS_diffKrNr = /* Vertical Diffusivity */
(PID.TID 0000.0001)    23 @  1.000000000000000E-05              /* K =  1: 23 */
(PID.TID 0000.0001)     ;
(PID.TID 0000.0001) PTRACERS_useGMRedi = /* apply GM-Redi */
(PID.TID 0000.0001)                   T
(PID.TID 0000.0001)     ;
(PID.TID 0000.0001) PTRACERS_useDWNSLP = /* apply DOWN-SLOPE Flow */
(PID.TID 0000.0001)                   F
(PID.TID 0000.0001)     ;
(PID.TID 0000.0001) PTRACERS_useKPP = /* apply KPP scheme */
(PID.TID 0000.0001)                   T
(PID.TID 0000.0001)     ;
(PID.TID 0000.0001) PTRACERS_ref = /* Reference vertical profile */
(PID.TID 0000.0001)    23 @  0.000000000000000E+00              /* K =  1: 23 */
(PID.TID 0000.0001)     ;
(PID.TID 0000.0001) PTRACERS_EvPrRn =/* tracer conc. in Evap. & Rain */
(PID.TID 0000.0001)                 1.234567000000000E+05
(PID.TID 0000.0001)     ;
(PID.TID 0000.0001)  -----------------------------------
(PID.TID 0000.0001)  tracer number :  191
(PID.TID 0000.0001) PTRACERS_names = /* Tracer short name */
(PID.TID 0000.0001)               'fe20'
(PID.TID 0000.0001)     ;
(PID.TID 0000.0001) PTRACERS_long_names = /* Tracer long name */
(PID.TID 0000.0001)               ''
(PID.TID 0000.0001)     ;
(PID.TID 0000.0001) PTRACERS_ioLabel = /* tracer IO Label */
(PID.TID 0000.0001)               '1N'
(PID.TID 0000.0001)     ;
(PID.TID 0000.0001) PTRACERS_advScheme = /* Advection Scheme */
(PID.TID 0000.0001)                      33
(PID.TID 0000.0001)     ;
(PID.TID 0000.0001) PTRACERS_SOM_Advection = /* tracer uses SOM advection scheme */
(PID.TID 0000.0001)                   F
(PID.TID 0000.0001)     ;
(PID.TID 0000.0001) PTRACERS_ImplVertAdv = /* implicit vert. advection flag */
(PID.TID 0000.0001)                   F
(PID.TID 0000.0001)     ;
(PID.TID 0000.0001) PTRACERS_diffKh = /* Laplacian Diffusivity */
(PID.TID 0000.0001)                 0.000000000000000E+00
(PID.TID 0000.0001)     ;
(PID.TID 0000.0001) PTRACERS_diffK4 = /* Biharmonic Diffusivity */
(PID.TID 0000.0001)                 0.000000000000000E+00
(PID.TID 0000.0001)     ;
(PID.TID 0000.0001) PTRACERS_diffKrNr = /* Vertical Diffusivity */
(PID.TID 0000.0001)    23 @  1.000000000000000E-05              /* K =  1: 23 */
(PID.TID 0000.0001)     ;
(PID.TID 0000.0001) PTRACERS_useGMRedi = /* apply GM-Redi */
(PID.TID 0000.0001)                   T
(PID.TID 0000.0001)     ;
(PID.TID 0000.0001) PTRACERS_useDWNSLP = /* apply DOWN-SLOPE Flow */
(PID.TID 0000.0001)                   F
(PID.TID 0000.0001)     ;
(PID.TID 0000.0001) PTRACERS_useKPP = /* apply KPP scheme */
(PID.TID 0000.0001)                   T
(PID.TID 0000.0001)     ;
(PID.TID 0000.0001) PTRACERS_ref = /* Reference vertical profile */
(PID.TID 0000.0001)    23 @  0.000000000000000E+00              /* K =  1: 23 */
(PID.TID 0000.0001)     ;
(PID.TID 0000.0001) PTRACERS_EvPrRn =/* tracer conc. in Evap. & Rain */
(PID.TID 0000.0001)                 1.234567000000000E+05
(PID.TID 0000.0001)     ;
(PID.TID 0000.0001)  -----------------------------------
(PID.TID 0000.0001)  tracer number :  192
(PID.TID 0000.0001) PTRACERS_names = /* Tracer short name */
(PID.TID 0000.0001)               'fe21'
(PID.TID 0000.0001)     ;
(PID.TID 0000.0001) PTRACERS_long_names = /* Tracer long name */
(PID.TID 0000.0001)               ''
(PID.TID 0000.0001)     ;
(PID.TID 0000.0001) PTRACERS_ioLabel = /* tracer IO Label */
(PID.TID 0000.0001)               '1O'
(PID.TID 0000.0001)     ;
(PID.TID 0000.0001) PTRACERS_advScheme = /* Advection Scheme */
(PID.TID 0000.0001)                      33
(PID.TID 0000.0001)     ;
(PID.TID 0000.0001) PTRACERS_SOM_Advection = /* tracer uses SOM advection scheme */
(PID.TID 0000.0001)                   F
(PID.TID 0000.0001)     ;
(PID.TID 0000.0001) PTRACERS_ImplVertAdv = /* implicit vert. advection flag */
(PID.TID 0000.0001)                   F
(PID.TID 0000.0001)     ;
(PID.TID 0000.0001) PTRACERS_diffKh = /* Laplacian Diffusivity */
(PID.TID 0000.0001)                 0.000000000000000E+00
(PID.TID 0000.0001)     ;
(PID.TID 0000.0001) PTRACERS_diffK4 = /* Biharmonic Diffusivity */
(PID.TID 0000.0001)                 0.000000000000000E+00
(PID.TID 0000.0001)     ;
(PID.TID 0000.0001) PTRACERS_diffKrNr = /* Vertical Diffusivity */
(PID.TID 0000.0001)    23 @  1.000000000000000E-05              /* K =  1: 23 */
(PID.TID 0000.0001)     ;
(PID.TID 0000.0001) PTRACERS_useGMRedi = /* apply GM-Redi */
(PID.TID 0000.0001)                   T
(PID.TID 0000.0001)     ;
(PID.TID 0000.0001) PTRACERS_useDWNSLP = /* apply DOWN-SLOPE Flow */
(PID.TID 0000.0001)                   F
(PID.TID 0000.0001)     ;
(PID.TID 0000.0001) PTRACERS_useKPP = /* apply KPP scheme */
(PID.TID 0000.0001)                   T
(PID.TID 0000.0001)     ;
(PID.TID 0000.0001) PTRACERS_ref = /* Reference vertical profile */
(PID.TID 0000.0001)    23 @  0.000000000000000E+00              /* K =  1: 23 */
(PID.TID 0000.0001)     ;
(PID.TID 0000.0001) PTRACERS_EvPrRn =/* tracer conc. in Evap. & Rain */
(PID.TID 0000.0001)                 1.234567000000000E+05
(PID.TID 0000.0001)     ;
(PID.TID 0000.0001)  -----------------------------------
(PID.TID 0000.0001)  tracer number :  193
(PID.TID 0000.0001) PTRACERS_names = /* Tracer short name */
(PID.TID 0000.0001)               'fe22'
(PID.TID 0000.0001)     ;
(PID.TID 0000.0001) PTRACERS_long_names = /* Tracer long name */
(PID.TID 0000.0001)               ''
(PID.TID 0000.0001)     ;
(PID.TID 0000.0001) PTRACERS_ioLabel = /* tracer IO Label */
(PID.TID 0000.0001)               '1P'
(PID.TID 0000.0001)     ;
(PID.TID 0000.0001) PTRACERS_advScheme = /* Advection Scheme */
(PID.TID 0000.0001)                      33
(PID.TID 0000.0001)     ;
(PID.TID 0000.0001) PTRACERS_SOM_Advection = /* tracer uses SOM advection scheme */
(PID.TID 0000.0001)                   F
(PID.TID 0000.0001)     ;
(PID.TID 0000.0001) PTRACERS_ImplVertAdv = /* implicit vert. advection flag */
(PID.TID 0000.0001)                   F
(PID.TID 0000.0001)     ;
(PID.TID 0000.0001) PTRACERS_diffKh = /* Laplacian Diffusivity */
(PID.TID 0000.0001)                 0.000000000000000E+00
(PID.TID 0000.0001)     ;
(PID.TID 0000.0001) PTRACERS_diffK4 = /* Biharmonic Diffusivity */
(PID.TID 0000.0001)                 0.000000000000000E+00
(PID.TID 0000.0001)     ;
(PID.TID 0000.0001) PTRACERS_diffKrNr = /* Vertical Diffusivity */
(PID.TID 0000.0001)    23 @  1.000000000000000E-05              /* K =  1: 23 */
(PID.TID 0000.0001)     ;
(PID.TID 0000.0001) PTRACERS_useGMRedi = /* apply GM-Redi */
(PID.TID 0000.0001)                   T
(PID.TID 0000.0001)     ;
(PID.TID 0000.0001) PTRACERS_useDWNSLP = /* apply DOWN-SLOPE Flow */
(PID.TID 0000.0001)                   F
(PID.TID 0000.0001)     ;
(PID.TID 0000.0001) PTRACERS_useKPP = /* apply KPP scheme */
(PID.TID 0000.0001)                   T
(PID.TID 0000.0001)     ;
(PID.TID 0000.0001) PTRACERS_ref = /* Reference vertical profile */
(PID.TID 0000.0001)    23 @  0.000000000000000E+00              /* K =  1: 23 */
(PID.TID 0000.0001)     ;
(PID.TID 0000.0001) PTRACERS_EvPrRn =/* tracer conc. in Evap. & Rain */
(PID.TID 0000.0001)                 1.234567000000000E+05
(PID.TID 0000.0001)     ;
(PID.TID 0000.0001)  -----------------------------------
(PID.TID 0000.0001)  tracer number :  194
(PID.TID 0000.0001) PTRACERS_names = /* Tracer short name */
(PID.TID 0000.0001)               'fe23'
(PID.TID 0000.0001)     ;
(PID.TID 0000.0001) PTRACERS_long_names = /* Tracer long name */
(PID.TID 0000.0001)               ''
(PID.TID 0000.0001)     ;
(PID.TID 0000.0001) PTRACERS_ioLabel = /* tracer IO Label */
(PID.TID 0000.0001)               '1Q'
(PID.TID 0000.0001)     ;
(PID.TID 0000.0001) PTRACERS_advScheme = /* Advection Scheme */
(PID.TID 0000.0001)                      33
(PID.TID 0000.0001)     ;
(PID.TID 0000.0001) PTRACERS_SOM_Advection = /* tracer uses SOM advection scheme */
(PID.TID 0000.0001)                   F
(PID.TID 0000.0001)     ;
(PID.TID 0000.0001) PTRACERS_ImplVertAdv = /* implicit vert. advection flag */
(PID.TID 0000.0001)                   F
(PID.TID 0000.0001)     ;
(PID.TID 0000.0001) PTRACERS_diffKh = /* Laplacian Diffusivity */
(PID.TID 0000.0001)                 0.000000000000000E+00
(PID.TID 0000.0001)     ;
(PID.TID 0000.0001) PTRACERS_diffK4 = /* Biharmonic Diffusivity */
(PID.TID 0000.0001)                 0.000000000000000E+00
(PID.TID 0000.0001)     ;
(PID.TID 0000.0001) PTRACERS_diffKrNr = /* Vertical Diffusivity */
(PID.TID 0000.0001)    23 @  1.000000000000000E-05              /* K =  1: 23 */
(PID.TID 0000.0001)     ;
(PID.TID 0000.0001) PTRACERS_useGMRedi = /* apply GM-Redi */
(PID.TID 0000.0001)                   T
(PID.TID 0000.0001)     ;
(PID.TID 0000.0001) PTRACERS_useDWNSLP = /* apply DOWN-SLOPE Flow */
(PID.TID 0000.0001)                   F
(PID.TID 0000.0001)     ;
(PID.TID 0000.0001) PTRACERS_useKPP = /* apply KPP scheme */
(PID.TID 0000.0001)                   T
(PID.TID 0000.0001)     ;
(PID.TID 0000.0001) PTRACERS_ref = /* Reference vertical profile */
(PID.TID 0000.0001)    23 @  0.000000000000000E+00              /* K =  1: 23 */
(PID.TID 0000.0001)     ;
(PID.TID 0000.0001) PTRACERS_EvPrRn =/* tracer conc. in Evap. & Rain */
(PID.TID 0000.0001)                 1.234567000000000E+05
(PID.TID 0000.0001)     ;
(PID.TID 0000.0001)  -----------------------------------
(PID.TID 0000.0001)  tracer number :  195
(PID.TID 0000.0001) PTRACERS_names = /* Tracer short name */
(PID.TID 0000.0001)               'fe24'
(PID.TID 0000.0001)     ;
(PID.TID 0000.0001) PTRACERS_long_names = /* Tracer long name */
(PID.TID 0000.0001)               ''
(PID.TID 0000.0001)     ;
(PID.TID 0000.0001) PTRACERS_ioLabel = /* tracer IO Label */
(PID.TID 0000.0001)               '1R'
(PID.TID 0000.0001)     ;
(PID.TID 0000.0001) PTRACERS_advScheme = /* Advection Scheme */
(PID.TID 0000.0001)                      33
(PID.TID 0000.0001)     ;
(PID.TID 0000.0001) PTRACERS_SOM_Advection = /* tracer uses SOM advection scheme */
(PID.TID 0000.0001)                   F
(PID.TID 0000.0001)     ;
(PID.TID 0000.0001) PTRACERS_ImplVertAdv = /* implicit vert. advection flag */
(PID.TID 0000.0001)                   F
(PID.TID 0000.0001)     ;
(PID.TID 0000.0001) PTRACERS_diffKh = /* Laplacian Diffusivity */
(PID.TID 0000.0001)                 0.000000000000000E+00
(PID.TID 0000.0001)     ;
(PID.TID 0000.0001) PTRACERS_diffK4 = /* Biharmonic Diffusivity */
(PID.TID 0000.0001)                 0.000000000000000E+00
(PID.TID 0000.0001)     ;
(PID.TID 0000.0001) PTRACERS_diffKrNr = /* Vertical Diffusivity */
(PID.TID 0000.0001)    23 @  1.000000000000000E-05              /* K =  1: 23 */
(PID.TID 0000.0001)     ;
(PID.TID 0000.0001) PTRACERS_useGMRedi = /* apply GM-Redi */
(PID.TID 0000.0001)                   T
(PID.TID 0000.0001)     ;
(PID.TID 0000.0001) PTRACERS_useDWNSLP = /* apply DOWN-SLOPE Flow */
(PID.TID 0000.0001)                   F
(PID.TID 0000.0001)     ;
(PID.TID 0000.0001) PTRACERS_useKPP = /* apply KPP scheme */
(PID.TID 0000.0001)                   T
(PID.TID 0000.0001)     ;
(PID.TID 0000.0001) PTRACERS_ref = /* Reference vertical profile */
(PID.TID 0000.0001)    23 @  0.000000000000000E+00              /* K =  1: 23 */
(PID.TID 0000.0001)     ;
(PID.TID 0000.0001) PTRACERS_EvPrRn =/* tracer conc. in Evap. & Rain */
(PID.TID 0000.0001)                 1.234567000000000E+05
(PID.TID 0000.0001)     ;
(PID.TID 0000.0001)  -----------------------------------
(PID.TID 0000.0001)  tracer number :  196
(PID.TID 0000.0001) PTRACERS_names = /* Tracer short name */
(PID.TID 0000.0001)               'fe25'
(PID.TID 0000.0001)     ;
(PID.TID 0000.0001) PTRACERS_long_names = /* Tracer long name */
(PID.TID 0000.0001)               ''
(PID.TID 0000.0001)     ;
(PID.TID 0000.0001) PTRACERS_ioLabel = /* tracer IO Label */
(PID.TID 0000.0001)               '1S'
(PID.TID 0000.0001)     ;
(PID.TID 0000.0001) PTRACERS_advScheme = /* Advection Scheme */
(PID.TID 0000.0001)                      33
(PID.TID 0000.0001)     ;
(PID.TID 0000.0001) PTRACERS_SOM_Advection = /* tracer uses SOM advection scheme */
(PID.TID 0000.0001)                   F
(PID.TID 0000.0001)     ;
(PID.TID 0000.0001) PTRACERS_ImplVertAdv = /* implicit vert. advection flag */
(PID.TID 0000.0001)                   F
(PID.TID 0000.0001)     ;
(PID.TID 0000.0001) PTRACERS_diffKh = /* Laplacian Diffusivity */
(PID.TID 0000.0001)                 0.000000000000000E+00
(PID.TID 0000.0001)     ;
(PID.TID 0000.0001) PTRACERS_diffK4 = /* Biharmonic Diffusivity */
(PID.TID 0000.0001)                 0.000000000000000E+00
(PID.TID 0000.0001)     ;
(PID.TID 0000.0001) PTRACERS_diffKrNr = /* Vertical Diffusivity */
(PID.TID 0000.0001)    23 @  1.000000000000000E-05              /* K =  1: 23 */
(PID.TID 0000.0001)     ;
(PID.TID 0000.0001) PTRACERS_useGMRedi = /* apply GM-Redi */
(PID.TID 0000.0001)                   T
(PID.TID 0000.0001)     ;
(PID.TID 0000.0001) PTRACERS_useDWNSLP = /* apply DOWN-SLOPE Flow */
(PID.TID 0000.0001)                   F
(PID.TID 0000.0001)     ;
(PID.TID 0000.0001) PTRACERS_useKPP = /* apply KPP scheme */
(PID.TID 0000.0001)                   T
(PID.TID 0000.0001)     ;
(PID.TID 0000.0001) PTRACERS_ref = /* Reference vertical profile */
(PID.TID 0000.0001)    23 @  0.000000000000000E+00              /* K =  1: 23 */
(PID.TID 0000.0001)     ;
(PID.TID 0000.0001) PTRACERS_EvPrRn =/* tracer conc. in Evap. & Rain */
(PID.TID 0000.0001)                 1.234567000000000E+05
(PID.TID 0000.0001)     ;
(PID.TID 0000.0001)  -----------------------------------
(PID.TID 0000.0001)  tracer number :  197
(PID.TID 0000.0001) PTRACERS_names = /* Tracer short name */
(PID.TID 0000.0001)               'fe26'
(PID.TID 0000.0001)     ;
(PID.TID 0000.0001) PTRACERS_long_names = /* Tracer long name */
(PID.TID 0000.0001)               ''
(PID.TID 0000.0001)     ;
(PID.TID 0000.0001) PTRACERS_ioLabel = /* tracer IO Label */
(PID.TID 0000.0001)               '1T'
(PID.TID 0000.0001)     ;
(PID.TID 0000.0001) PTRACERS_advScheme = /* Advection Scheme */
(PID.TID 0000.0001)                      33
(PID.TID 0000.0001)     ;
(PID.TID 0000.0001) PTRACERS_SOM_Advection = /* tracer uses SOM advection scheme */
(PID.TID 0000.0001)                   F
(PID.TID 0000.0001)     ;
(PID.TID 0000.0001) PTRACERS_ImplVertAdv = /* implicit vert. advection flag */
(PID.TID 0000.0001)                   F
(PID.TID 0000.0001)     ;
(PID.TID 0000.0001) PTRACERS_diffKh = /* Laplacian Diffusivity */
(PID.TID 0000.0001)                 0.000000000000000E+00
(PID.TID 0000.0001)     ;
(PID.TID 0000.0001) PTRACERS_diffK4 = /* Biharmonic Diffusivity */
(PID.TID 0000.0001)                 0.000000000000000E+00
(PID.TID 0000.0001)     ;
(PID.TID 0000.0001) PTRACERS_diffKrNr = /* Vertical Diffusivity */
(PID.TID 0000.0001)    23 @  1.000000000000000E-05              /* K =  1: 23 */
(PID.TID 0000.0001)     ;
(PID.TID 0000.0001) PTRACERS_useGMRedi = /* apply GM-Redi */
(PID.TID 0000.0001)                   T
(PID.TID 0000.0001)     ;
(PID.TID 0000.0001) PTRACERS_useDWNSLP = /* apply DOWN-SLOPE Flow */
(PID.TID 0000.0001)                   F
(PID.TID 0000.0001)     ;
(PID.TID 0000.0001) PTRACERS_useKPP = /* apply KPP scheme */
(PID.TID 0000.0001)                   T
(PID.TID 0000.0001)     ;
(PID.TID 0000.0001) PTRACERS_ref = /* Reference vertical profile */
(PID.TID 0000.0001)    23 @  0.000000000000000E+00              /* K =  1: 23 */
(PID.TID 0000.0001)     ;
(PID.TID 0000.0001) PTRACERS_EvPrRn =/* tracer conc. in Evap. & Rain */
(PID.TID 0000.0001)                 1.234567000000000E+05
(PID.TID 0000.0001)     ;
(PID.TID 0000.0001)  -----------------------------------
(PID.TID 0000.0001)  tracer number :  198
(PID.TID 0000.0001) PTRACERS_names = /* Tracer short name */
(PID.TID 0000.0001)               'fe27'
(PID.TID 0000.0001)     ;
(PID.TID 0000.0001) PTRACERS_long_names = /* Tracer long name */
(PID.TID 0000.0001)               ''
(PID.TID 0000.0001)     ;
(PID.TID 0000.0001) PTRACERS_ioLabel = /* tracer IO Label */
(PID.TID 0000.0001)               '1U'
(PID.TID 0000.0001)     ;
(PID.TID 0000.0001) PTRACERS_advScheme = /* Advection Scheme */
(PID.TID 0000.0001)                      33
(PID.TID 0000.0001)     ;
(PID.TID 0000.0001) PTRACERS_SOM_Advection = /* tracer uses SOM advection scheme */
(PID.TID 0000.0001)                   F
(PID.TID 0000.0001)     ;
(PID.TID 0000.0001) PTRACERS_ImplVertAdv = /* implicit vert. advection flag */
(PID.TID 0000.0001)                   F
(PID.TID 0000.0001)     ;
(PID.TID 0000.0001) PTRACERS_diffKh = /* Laplacian Diffusivity */
(PID.TID 0000.0001)                 0.000000000000000E+00
(PID.TID 0000.0001)     ;
(PID.TID 0000.0001) PTRACERS_diffK4 = /* Biharmonic Diffusivity */
(PID.TID 0000.0001)                 0.000000000000000E+00
(PID.TID 0000.0001)     ;
(PID.TID 0000.0001) PTRACERS_diffKrNr = /* Vertical Diffusivity */
(PID.TID 0000.0001)    23 @  1.000000000000000E-05              /* K =  1: 23 */
(PID.TID 0000.0001)     ;
(PID.TID 0000.0001) PTRACERS_useGMRedi = /* apply GM-Redi */
(PID.TID 0000.0001)                   T
(PID.TID 0000.0001)     ;
(PID.TID 0000.0001) PTRACERS_useDWNSLP = /* apply DOWN-SLOPE Flow */
(PID.TID 0000.0001)                   F
(PID.TID 0000.0001)     ;
(PID.TID 0000.0001) PTRACERS_useKPP = /* apply KPP scheme */
(PID.TID 0000.0001)                   T
(PID.TID 0000.0001)     ;
(PID.TID 0000.0001) PTRACERS_ref = /* Reference vertical profile */
(PID.TID 0000.0001)    23 @  0.000000000000000E+00              /* K =  1: 23 */
(PID.TID 0000.0001)     ;
(PID.TID 0000.0001) PTRACERS_EvPrRn =/* tracer conc. in Evap. & Rain */
(PID.TID 0000.0001)                 1.234567000000000E+05
(PID.TID 0000.0001)     ;
(PID.TID 0000.0001)  -----------------------------------
(PID.TID 0000.0001)  tracer number :  199
(PID.TID 0000.0001) PTRACERS_names = /* Tracer short name */
(PID.TID 0000.0001)               'fe28'
(PID.TID 0000.0001)     ;
(PID.TID 0000.0001) PTRACERS_long_names = /* Tracer long name */
(PID.TID 0000.0001)               ''
(PID.TID 0000.0001)     ;
(PID.TID 0000.0001) PTRACERS_ioLabel = /* tracer IO Label */
(PID.TID 0000.0001)               '1V'
(PID.TID 0000.0001)     ;
(PID.TID 0000.0001) PTRACERS_advScheme = /* Advection Scheme */
(PID.TID 0000.0001)                      33
(PID.TID 0000.0001)     ;
(PID.TID 0000.0001) PTRACERS_SOM_Advection = /* tracer uses SOM advection scheme */
(PID.TID 0000.0001)                   F
(PID.TID 0000.0001)     ;
(PID.TID 0000.0001) PTRACERS_ImplVertAdv = /* implicit vert. advection flag */
(PID.TID 0000.0001)                   F
(PID.TID 0000.0001)     ;
(PID.TID 0000.0001) PTRACERS_diffKh = /* Laplacian Diffusivity */
(PID.TID 0000.0001)                 0.000000000000000E+00
(PID.TID 0000.0001)     ;
(PID.TID 0000.0001) PTRACERS_diffK4 = /* Biharmonic Diffusivity */
(PID.TID 0000.0001)                 0.000000000000000E+00
(PID.TID 0000.0001)     ;
(PID.TID 0000.0001) PTRACERS_diffKrNr = /* Vertical Diffusivity */
(PID.TID 0000.0001)    23 @  1.000000000000000E-05              /* K =  1: 23 */
(PID.TID 0000.0001)     ;
(PID.TID 0000.0001) PTRACERS_useGMRedi = /* apply GM-Redi */
(PID.TID 0000.0001)                   T
(PID.TID 0000.0001)     ;
(PID.TID 0000.0001) PTRACERS_useDWNSLP = /* apply DOWN-SLOPE Flow */
(PID.TID 0000.0001)                   F
(PID.TID 0000.0001)     ;
(PID.TID 0000.0001) PTRACERS_useKPP = /* apply KPP scheme */
(PID.TID 0000.0001)                   T
(PID.TID 0000.0001)     ;
(PID.TID 0000.0001) PTRACERS_ref = /* Reference vertical profile */
(PID.TID 0000.0001)    23 @  0.000000000000000E+00              /* K =  1: 23 */
(PID.TID 0000.0001)     ;
(PID.TID 0000.0001) PTRACERS_EvPrRn =/* tracer conc. in Evap. & Rain */
(PID.TID 0000.0001)                 1.234567000000000E+05
(PID.TID 0000.0001)     ;
(PID.TID 0000.0001)  -----------------------------------
(PID.TID 0000.0001)  tracer number :  200
(PID.TID 0000.0001) PTRACERS_names = /* Tracer short name */
(PID.TID 0000.0001)               'fe29'
(PID.TID 0000.0001)     ;
(PID.TID 0000.0001) PTRACERS_long_names = /* Tracer long name */
(PID.TID 0000.0001)               ''
(PID.TID 0000.0001)     ;
(PID.TID 0000.0001) PTRACERS_ioLabel = /* tracer IO Label */
(PID.TID 0000.0001)               '1W'
(PID.TID 0000.0001)     ;
(PID.TID 0000.0001) PTRACERS_advScheme = /* Advection Scheme */
(PID.TID 0000.0001)                      33
(PID.TID 0000.0001)     ;
(PID.TID 0000.0001) PTRACERS_SOM_Advection = /* tracer uses SOM advection scheme */
(PID.TID 0000.0001)                   F
(PID.TID 0000.0001)     ;
(PID.TID 0000.0001) PTRACERS_ImplVertAdv = /* implicit vert. advection flag */
(PID.TID 0000.0001)                   F
(PID.TID 0000.0001)     ;
(PID.TID 0000.0001) PTRACERS_diffKh = /* Laplacian Diffusivity */
(PID.TID 0000.0001)                 0.000000000000000E+00
(PID.TID 0000.0001)     ;
(PID.TID 0000.0001) PTRACERS_diffK4 = /* Biharmonic Diffusivity */
(PID.TID 0000.0001)                 0.000000000000000E+00
(PID.TID 0000.0001)     ;
(PID.TID 0000.0001) PTRACERS_diffKrNr = /* Vertical Diffusivity */
(PID.TID 0000.0001)    23 @  1.000000000000000E-05              /* K =  1: 23 */
(PID.TID 0000.0001)     ;
(PID.TID 0000.0001) PTRACERS_useGMRedi = /* apply GM-Redi */
(PID.TID 0000.0001)                   T
(PID.TID 0000.0001)     ;
(PID.TID 0000.0001) PTRACERS_useDWNSLP = /* apply DOWN-SLOPE Flow */
(PID.TID 0000.0001)                   F
(PID.TID 0000.0001)     ;
(PID.TID 0000.0001) PTRACERS_useKPP = /* apply KPP scheme */
(PID.TID 0000.0001)                   T
(PID.TID 0000.0001)     ;
(PID.TID 0000.0001) PTRACERS_ref = /* Reference vertical profile */
(PID.TID 0000.0001)    23 @  0.000000000000000E+00              /* K =  1: 23 */
(PID.TID 0000.0001)     ;
(PID.TID 0000.0001) PTRACERS_EvPrRn =/* tracer conc. in Evap. & Rain */
(PID.TID 0000.0001)                 1.234567000000000E+05
(PID.TID 0000.0001)     ;
(PID.TID 0000.0001)  -----------------------------------
(PID.TID 0000.0001)  tracer number :  201
(PID.TID 0000.0001) PTRACERS_names = /* Tracer short name */
(PID.TID 0000.0001)               'fe30'
(PID.TID 0000.0001)     ;
(PID.TID 0000.0001) PTRACERS_long_names = /* Tracer long name */
(PID.TID 0000.0001)               ''
(PID.TID 0000.0001)     ;
(PID.TID 0000.0001) PTRACERS_ioLabel = /* tracer IO Label */
(PID.TID 0000.0001)               '1X'
(PID.TID 0000.0001)     ;
(PID.TID 0000.0001) PTRACERS_advScheme = /* Advection Scheme */
(PID.TID 0000.0001)                      33
(PID.TID 0000.0001)     ;
(PID.TID 0000.0001) PTRACERS_SOM_Advection = /* tracer uses SOM advection scheme */
(PID.TID 0000.0001)                   F
(PID.TID 0000.0001)     ;
(PID.TID 0000.0001) PTRACERS_ImplVertAdv = /* implicit vert. advection flag */
(PID.TID 0000.0001)                   F
(PID.TID 0000.0001)     ;
(PID.TID 0000.0001) PTRACERS_diffKh = /* Laplacian Diffusivity */
(PID.TID 0000.0001)                 0.000000000000000E+00
(PID.TID 0000.0001)     ;
(PID.TID 0000.0001) PTRACERS_diffK4 = /* Biharmonic Diffusivity */
(PID.TID 0000.0001)                 0.000000000000000E+00
(PID.TID 0000.0001)     ;
(PID.TID 0000.0001) PTRACERS_diffKrNr = /* Vertical Diffusivity */
(PID.TID 0000.0001)    23 @  1.000000000000000E-05              /* K =  1: 23 */
(PID.TID 0000.0001)     ;
(PID.TID 0000.0001) PTRACERS_useGMRedi = /* apply GM-Redi */
(PID.TID 0000.0001)                   T
(PID.TID 0000.0001)     ;
(PID.TID 0000.0001) PTRACERS_useDWNSLP = /* apply DOWN-SLOPE Flow */
(PID.TID 0000.0001)                   F
(PID.TID 0000.0001)     ;
(PID.TID 0000.0001) PTRACERS_useKPP = /* apply KPP scheme */
(PID.TID 0000.0001)                   T
(PID.TID 0000.0001)     ;
(PID.TID 0000.0001) PTRACERS_ref = /* Reference vertical profile */
(PID.TID 0000.0001)    23 @  0.000000000000000E+00              /* K =  1: 23 */
(PID.TID 0000.0001)     ;
(PID.TID 0000.0001) PTRACERS_EvPrRn =/* tracer conc. in Evap. & Rain */
(PID.TID 0000.0001)                 1.234567000000000E+05
(PID.TID 0000.0001)     ;
(PID.TID 0000.0001)  -----------------------------------
(PID.TID 0000.0001)  tracer number :  202
(PID.TID 0000.0001) PTRACERS_names = /* Tracer short name */
(PID.TID 0000.0001)               'fe31'
(PID.TID 0000.0001)     ;
(PID.TID 0000.0001) PTRACERS_long_names = /* Tracer long name */
(PID.TID 0000.0001)               ''
(PID.TID 0000.0001)     ;
(PID.TID 0000.0001) PTRACERS_ioLabel = /* tracer IO Label */
(PID.TID 0000.0001)               '1Y'
(PID.TID 0000.0001)     ;
(PID.TID 0000.0001) PTRACERS_advScheme = /* Advection Scheme */
(PID.TID 0000.0001)                      33
(PID.TID 0000.0001)     ;
(PID.TID 0000.0001) PTRACERS_SOM_Advection = /* tracer uses SOM advection scheme */
(PID.TID 0000.0001)                   F
(PID.TID 0000.0001)     ;
(PID.TID 0000.0001) PTRACERS_ImplVertAdv = /* implicit vert. advection flag */
(PID.TID 0000.0001)                   F
(PID.TID 0000.0001)     ;
(PID.TID 0000.0001) PTRACERS_diffKh = /* Laplacian Diffusivity */
(PID.TID 0000.0001)                 0.000000000000000E+00
(PID.TID 0000.0001)     ;
(PID.TID 0000.0001) PTRACERS_diffK4 = /* Biharmonic Diffusivity */
(PID.TID 0000.0001)                 0.000000000000000E+00
(PID.TID 0000.0001)     ;
(PID.TID 0000.0001) PTRACERS_diffKrNr = /* Vertical Diffusivity */
(PID.TID 0000.0001)    23 @  1.000000000000000E-05              /* K =  1: 23 */
(PID.TID 0000.0001)     ;
(PID.TID 0000.0001) PTRACERS_useGMRedi = /* apply GM-Redi */
(PID.TID 0000.0001)                   T
(PID.TID 0000.0001)     ;
(PID.TID 0000.0001) PTRACERS_useDWNSLP = /* apply DOWN-SLOPE Flow */
(PID.TID 0000.0001)                   F
(PID.TID 0000.0001)     ;
(PID.TID 0000.0001) PTRACERS_useKPP = /* apply KPP scheme */
(PID.TID 0000.0001)                   T
(PID.TID 0000.0001)     ;
(PID.TID 0000.0001) PTRACERS_ref = /* Reference vertical profile */
(PID.TID 0000.0001)    23 @  0.000000000000000E+00              /* K =  1: 23 */
(PID.TID 0000.0001)     ;
(PID.TID 0000.0001) PTRACERS_EvPrRn =/* tracer conc. in Evap. & Rain */
(PID.TID 0000.0001)                 1.234567000000000E+05
(PID.TID 0000.0001)     ;
(PID.TID 0000.0001)  -----------------------------------
(PID.TID 0000.0001)  tracer number :  203
(PID.TID 0000.0001) PTRACERS_names = /* Tracer short name */
(PID.TID 0000.0001)               'fe32'
(PID.TID 0000.0001)     ;
(PID.TID 0000.0001) PTRACERS_long_names = /* Tracer long name */
(PID.TID 0000.0001)               ''
(PID.TID 0000.0001)     ;
(PID.TID 0000.0001) PTRACERS_ioLabel = /* tracer IO Label */
(PID.TID 0000.0001)               '1Z'
(PID.TID 0000.0001)     ;
(PID.TID 0000.0001) PTRACERS_advScheme = /* Advection Scheme */
(PID.TID 0000.0001)                      33
(PID.TID 0000.0001)     ;
(PID.TID 0000.0001) PTRACERS_SOM_Advection = /* tracer uses SOM advection scheme */
(PID.TID 0000.0001)                   F
(PID.TID 0000.0001)     ;
(PID.TID 0000.0001) PTRACERS_ImplVertAdv = /* implicit vert. advection flag */
(PID.TID 0000.0001)                   F
(PID.TID 0000.0001)     ;
(PID.TID 0000.0001) PTRACERS_diffKh = /* Laplacian Diffusivity */
(PID.TID 0000.0001)                 0.000000000000000E+00
(PID.TID 0000.0001)     ;
(PID.TID 0000.0001) PTRACERS_diffK4 = /* Biharmonic Diffusivity */
(PID.TID 0000.0001)                 0.000000000000000E+00
(PID.TID 0000.0001)     ;
(PID.TID 0000.0001) PTRACERS_diffKrNr = /* Vertical Diffusivity */
(PID.TID 0000.0001)    23 @  1.000000000000000E-05              /* K =  1: 23 */
(PID.TID 0000.0001)     ;
(PID.TID 0000.0001) PTRACERS_useGMRedi = /* apply GM-Redi */
(PID.TID 0000.0001)                   T
(PID.TID 0000.0001)     ;
(PID.TID 0000.0001) PTRACERS_useDWNSLP = /* apply DOWN-SLOPE Flow */
(PID.TID 0000.0001)                   F
(PID.TID 0000.0001)     ;
(PID.TID 0000.0001) PTRACERS_useKPP = /* apply KPP scheme */
(PID.TID 0000.0001)                   T
(PID.TID 0000.0001)     ;
(PID.TID 0000.0001) PTRACERS_ref = /* Reference vertical profile */
(PID.TID 0000.0001)    23 @  0.000000000000000E+00              /* K =  1: 23 */
(PID.TID 0000.0001)     ;
(PID.TID 0000.0001) PTRACERS_EvPrRn =/* tracer conc. in Evap. & Rain */
(PID.TID 0000.0001)                 1.234567000000000E+05
(PID.TID 0000.0001)     ;
(PID.TID 0000.0001)  -----------------------------------
(PID.TID 0000.0001)  tracer number :  204
(PID.TID 0000.0001) PTRACERS_names = /* Tracer short name */
(PID.TID 0000.0001)               'fe33'
(PID.TID 0000.0001)     ;
(PID.TID 0000.0001) PTRACERS_long_names = /* Tracer long name */
(PID.TID 0000.0001)               ''
(PID.TID 0000.0001)     ;
(PID.TID 0000.0001) PTRACERS_ioLabel = /* tracer IO Label */
(PID.TID 0000.0001)               '2a'
(PID.TID 0000.0001)     ;
(PID.TID 0000.0001) PTRACERS_advScheme = /* Advection Scheme */
(PID.TID 0000.0001)                      33
(PID.TID 0000.0001)     ;
(PID.TID 0000.0001) PTRACERS_SOM_Advection = /* tracer uses SOM advection scheme */
(PID.TID 0000.0001)                   F
(PID.TID 0000.0001)     ;
(PID.TID 0000.0001) PTRACERS_ImplVertAdv = /* implicit vert. advection flag */
(PID.TID 0000.0001)                   F
(PID.TID 0000.0001)     ;
(PID.TID 0000.0001) PTRACERS_diffKh = /* Laplacian Diffusivity */
(PID.TID 0000.0001)                 0.000000000000000E+00
(PID.TID 0000.0001)     ;
(PID.TID 0000.0001) PTRACERS_diffK4 = /* Biharmonic Diffusivity */
(PID.TID 0000.0001)                 0.000000000000000E+00
(PID.TID 0000.0001)     ;
(PID.TID 0000.0001) PTRACERS_diffKrNr = /* Vertical Diffusivity */
(PID.TID 0000.0001)    23 @  1.000000000000000E-05              /* K =  1: 23 */
(PID.TID 0000.0001)     ;
(PID.TID 0000.0001) PTRACERS_useGMRedi = /* apply GM-Redi */
(PID.TID 0000.0001)                   T
(PID.TID 0000.0001)     ;
(PID.TID 0000.0001) PTRACERS_useDWNSLP = /* apply DOWN-SLOPE Flow */
(PID.TID 0000.0001)                   F
(PID.TID 0000.0001)     ;
(PID.TID 0000.0001) PTRACERS_useKPP = /* apply KPP scheme */
(PID.TID 0000.0001)                   T
(PID.TID 0000.0001)     ;
(PID.TID 0000.0001) PTRACERS_ref = /* Reference vertical profile */
(PID.TID 0000.0001)    23 @  0.000000000000000E+00              /* K =  1: 23 */
(PID.TID 0000.0001)     ;
(PID.TID 0000.0001) PTRACERS_EvPrRn =/* tracer conc. in Evap. & Rain */
(PID.TID 0000.0001)                 1.234567000000000E+05
(PID.TID 0000.0001)     ;
(PID.TID 0000.0001)  -----------------------------------
(PID.TID 0000.0001)  tracer number :  205
(PID.TID 0000.0001) PTRACERS_names = /* Tracer short name */
(PID.TID 0000.0001)               'fe34'
(PID.TID 0000.0001)     ;
(PID.TID 0000.0001) PTRACERS_long_names = /* Tracer long name */
(PID.TID 0000.0001)               ''
(PID.TID 0000.0001)     ;
(PID.TID 0000.0001) PTRACERS_ioLabel = /* tracer IO Label */
(PID.TID 0000.0001)               '2b'
(PID.TID 0000.0001)     ;
(PID.TID 0000.0001) PTRACERS_advScheme = /* Advection Scheme */
(PID.TID 0000.0001)                      33
(PID.TID 0000.0001)     ;
(PID.TID 0000.0001) PTRACERS_SOM_Advection = /* tracer uses SOM advection scheme */
(PID.TID 0000.0001)                   F
(PID.TID 0000.0001)     ;
(PID.TID 0000.0001) PTRACERS_ImplVertAdv = /* implicit vert. advection flag */
(PID.TID 0000.0001)                   F
(PID.TID 0000.0001)     ;
(PID.TID 0000.0001) PTRACERS_diffKh = /* Laplacian Diffusivity */
(PID.TID 0000.0001)                 0.000000000000000E+00
(PID.TID 0000.0001)     ;
(PID.TID 0000.0001) PTRACERS_diffK4 = /* Biharmonic Diffusivity */
(PID.TID 0000.0001)                 0.000000000000000E+00
(PID.TID 0000.0001)     ;
(PID.TID 0000.0001) PTRACERS_diffKrNr = /* Vertical Diffusivity */
(PID.TID 0000.0001)    23 @  1.000000000000000E-05              /* K =  1: 23 */
(PID.TID 0000.0001)     ;
(PID.TID 0000.0001) PTRACERS_useGMRedi = /* apply GM-Redi */
(PID.TID 0000.0001)                   T
(PID.TID 0000.0001)     ;
(PID.TID 0000.0001) PTRACERS_useDWNSLP = /* apply DOWN-SLOPE Flow */
(PID.TID 0000.0001)                   F
(PID.TID 0000.0001)     ;
(PID.TID 0000.0001) PTRACERS_useKPP = /* apply KPP scheme */
(PID.TID 0000.0001)                   T
(PID.TID 0000.0001)     ;
(PID.TID 0000.0001) PTRACERS_ref = /* Reference vertical profile */
(PID.TID 0000.0001)    23 @  0.000000000000000E+00              /* K =  1: 23 */
(PID.TID 0000.0001)     ;
(PID.TID 0000.0001) PTRACERS_EvPrRn =/* tracer conc. in Evap. & Rain */
(PID.TID 0000.0001)                 1.234567000000000E+05
(PID.TID 0000.0001)     ;
(PID.TID 0000.0001)  -----------------------------------
(PID.TID 0000.0001)  tracer number :  206
(PID.TID 0000.0001) PTRACERS_names = /* Tracer short name */
(PID.TID 0000.0001)               'fe35'
(PID.TID 0000.0001)     ;
(PID.TID 0000.0001) PTRACERS_long_names = /* Tracer long name */
(PID.TID 0000.0001)               ''
(PID.TID 0000.0001)     ;
(PID.TID 0000.0001) PTRACERS_ioLabel = /* tracer IO Label */
(PID.TID 0000.0001)               '2c'
(PID.TID 0000.0001)     ;
(PID.TID 0000.0001) PTRACERS_advScheme = /* Advection Scheme */
(PID.TID 0000.0001)                      33
(PID.TID 0000.0001)     ;
(PID.TID 0000.0001) PTRACERS_SOM_Advection = /* tracer uses SOM advection scheme */
(PID.TID 0000.0001)                   F
(PID.TID 0000.0001)     ;
(PID.TID 0000.0001) PTRACERS_ImplVertAdv = /* implicit vert. advection flag */
(PID.TID 0000.0001)                   F
(PID.TID 0000.0001)     ;
(PID.TID 0000.0001) PTRACERS_diffKh = /* Laplacian Diffusivity */
(PID.TID 0000.0001)                 0.000000000000000E+00
(PID.TID 0000.0001)     ;
(PID.TID 0000.0001) PTRACERS_diffK4 = /* Biharmonic Diffusivity */
(PID.TID 0000.0001)                 0.000000000000000E+00
(PID.TID 0000.0001)     ;
(PID.TID 0000.0001) PTRACERS_diffKrNr = /* Vertical Diffusivity */
(PID.TID 0000.0001)    23 @  1.000000000000000E-05              /* K =  1: 23 */
(PID.TID 0000.0001)     ;
(PID.TID 0000.0001) PTRACERS_useGMRedi = /* apply GM-Redi */
(PID.TID 0000.0001)                   T
(PID.TID 0000.0001)     ;
(PID.TID 0000.0001) PTRACERS_useDWNSLP = /* apply DOWN-SLOPE Flow */
(PID.TID 0000.0001)                   F
(PID.TID 0000.0001)     ;
(PID.TID 0000.0001) PTRACERS_useKPP = /* apply KPP scheme */
(PID.TID 0000.0001)                   T
(PID.TID 0000.0001)     ;
(PID.TID 0000.0001) PTRACERS_ref = /* Reference vertical profile */
(PID.TID 0000.0001)    23 @  0.000000000000000E+00              /* K =  1: 23 */
(PID.TID 0000.0001)     ;
(PID.TID 0000.0001) PTRACERS_EvPrRn =/* tracer conc. in Evap. & Rain */
(PID.TID 0000.0001)                 1.234567000000000E+05
(PID.TID 0000.0001)     ;
(PID.TID 0000.0001)  -----------------------------------
(PID.TID 0000.0001)  tracer number :  207
(PID.TID 0000.0001) PTRACERS_names = /* Tracer short name */
(PID.TID 0000.0001)               'fe36'
(PID.TID 0000.0001)     ;
(PID.TID 0000.0001) PTRACERS_long_names = /* Tracer long name */
(PID.TID 0000.0001)               ''
(PID.TID 0000.0001)     ;
(PID.TID 0000.0001) PTRACERS_ioLabel = /* tracer IO Label */
(PID.TID 0000.0001)               '2d'
(PID.TID 0000.0001)     ;
(PID.TID 0000.0001) PTRACERS_advScheme = /* Advection Scheme */
(PID.TID 0000.0001)                      33
(PID.TID 0000.0001)     ;
(PID.TID 0000.0001) PTRACERS_SOM_Advection = /* tracer uses SOM advection scheme */
(PID.TID 0000.0001)                   F
(PID.TID 0000.0001)     ;
(PID.TID 0000.0001) PTRACERS_ImplVertAdv = /* implicit vert. advection flag */
(PID.TID 0000.0001)                   F
(PID.TID 0000.0001)     ;
(PID.TID 0000.0001) PTRACERS_diffKh = /* Laplacian Diffusivity */
(PID.TID 0000.0001)                 0.000000000000000E+00
(PID.TID 0000.0001)     ;
(PID.TID 0000.0001) PTRACERS_diffK4 = /* Biharmonic Diffusivity */
(PID.TID 0000.0001)                 0.000000000000000E+00
(PID.TID 0000.0001)     ;
(PID.TID 0000.0001) PTRACERS_diffKrNr = /* Vertical Diffusivity */
(PID.TID 0000.0001)    23 @  1.000000000000000E-05              /* K =  1: 23 */
(PID.TID 0000.0001)     ;
(PID.TID 0000.0001) PTRACERS_useGMRedi = /* apply GM-Redi */
(PID.TID 0000.0001)                   T
(PID.TID 0000.0001)     ;
(PID.TID 0000.0001) PTRACERS_useDWNSLP = /* apply DOWN-SLOPE Flow */
(PID.TID 0000.0001)                   F
(PID.TID 0000.0001)     ;
(PID.TID 0000.0001) PTRACERS_useKPP = /* apply KPP scheme */
(PID.TID 0000.0001)                   T
(PID.TID 0000.0001)     ;
(PID.TID 0000.0001) PTRACERS_ref = /* Reference vertical profile */
(PID.TID 0000.0001)    23 @  0.000000000000000E+00              /* K =  1: 23 */
(PID.TID 0000.0001)     ;
(PID.TID 0000.0001) PTRACERS_EvPrRn =/* tracer conc. in Evap. & Rain */
(PID.TID 0000.0001)                 1.234567000000000E+05
(PID.TID 0000.0001)     ;
(PID.TID 0000.0001)  -----------------------------------
(PID.TID 0000.0001)  tracer number :  208
(PID.TID 0000.0001) PTRACERS_names = /* Tracer short name */
(PID.TID 0000.0001)               'fe37'
(PID.TID 0000.0001)     ;
(PID.TID 0000.0001) PTRACERS_long_names = /* Tracer long name */
(PID.TID 0000.0001)               ''
(PID.TID 0000.0001)     ;
(PID.TID 0000.0001) PTRACERS_ioLabel = /* tracer IO Label */
(PID.TID 0000.0001)               '2e'
(PID.TID 0000.0001)     ;
(PID.TID 0000.0001) PTRACERS_advScheme = /* Advection Scheme */
(PID.TID 0000.0001)                      33
(PID.TID 0000.0001)     ;
(PID.TID 0000.0001) PTRACERS_SOM_Advection = /* tracer uses SOM advection scheme */
(PID.TID 0000.0001)                   F
(PID.TID 0000.0001)     ;
(PID.TID 0000.0001) PTRACERS_ImplVertAdv = /* implicit vert. advection flag */
(PID.TID 0000.0001)                   F
(PID.TID 0000.0001)     ;
(PID.TID 0000.0001) PTRACERS_diffKh = /* Laplacian Diffusivity */
(PID.TID 0000.0001)                 0.000000000000000E+00
(PID.TID 0000.0001)     ;
(PID.TID 0000.0001) PTRACERS_diffK4 = /* Biharmonic Diffusivity */
(PID.TID 0000.0001)                 0.000000000000000E+00
(PID.TID 0000.0001)     ;
(PID.TID 0000.0001) PTRACERS_diffKrNr = /* Vertical Diffusivity */
(PID.TID 0000.0001)    23 @  1.000000000000000E-05              /* K =  1: 23 */
(PID.TID 0000.0001)     ;
(PID.TID 0000.0001) PTRACERS_useGMRedi = /* apply GM-Redi */
(PID.TID 0000.0001)                   T
(PID.TID 0000.0001)     ;
(PID.TID 0000.0001) PTRACERS_useDWNSLP = /* apply DOWN-SLOPE Flow */
(PID.TID 0000.0001)                   F
(PID.TID 0000.0001)     ;
(PID.TID 0000.0001) PTRACERS_useKPP = /* apply KPP scheme */
(PID.TID 0000.0001)                   T
(PID.TID 0000.0001)     ;
(PID.TID 0000.0001) PTRACERS_ref = /* Reference vertical profile */
(PID.TID 0000.0001)    23 @  0.000000000000000E+00              /* K =  1: 23 */
(PID.TID 0000.0001)     ;
(PID.TID 0000.0001) PTRACERS_EvPrRn =/* tracer conc. in Evap. & Rain */
(PID.TID 0000.0001)                 1.234567000000000E+05
(PID.TID 0000.0001)     ;
(PID.TID 0000.0001)  -----------------------------------
(PID.TID 0000.0001)  tracer number :  209
(PID.TID 0000.0001) PTRACERS_names = /* Tracer short name */
(PID.TID 0000.0001)               'fe38'
(PID.TID 0000.0001)     ;
(PID.TID 0000.0001) PTRACERS_long_names = /* Tracer long name */
(PID.TID 0000.0001)               ''
(PID.TID 0000.0001)     ;
(PID.TID 0000.0001) PTRACERS_ioLabel = /* tracer IO Label */
(PID.TID 0000.0001)               '2f'
(PID.TID 0000.0001)     ;
(PID.TID 0000.0001) PTRACERS_advScheme = /* Advection Scheme */
(PID.TID 0000.0001)                      33
(PID.TID 0000.0001)     ;
(PID.TID 0000.0001) PTRACERS_SOM_Advection = /* tracer uses SOM advection scheme */
(PID.TID 0000.0001)                   F
(PID.TID 0000.0001)     ;
(PID.TID 0000.0001) PTRACERS_ImplVertAdv = /* implicit vert. advection flag */
(PID.TID 0000.0001)                   F
(PID.TID 0000.0001)     ;
(PID.TID 0000.0001) PTRACERS_diffKh = /* Laplacian Diffusivity */
(PID.TID 0000.0001)                 0.000000000000000E+00
(PID.TID 0000.0001)     ;
(PID.TID 0000.0001) PTRACERS_diffK4 = /* Biharmonic Diffusivity */
(PID.TID 0000.0001)                 0.000000000000000E+00
(PID.TID 0000.0001)     ;
(PID.TID 0000.0001) PTRACERS_diffKrNr = /* Vertical Diffusivity */
(PID.TID 0000.0001)    23 @  1.000000000000000E-05              /* K =  1: 23 */
(PID.TID 0000.0001)     ;
(PID.TID 0000.0001) PTRACERS_useGMRedi = /* apply GM-Redi */
(PID.TID 0000.0001)                   T
(PID.TID 0000.0001)     ;
(PID.TID 0000.0001) PTRACERS_useDWNSLP = /* apply DOWN-SLOPE Flow */
(PID.TID 0000.0001)                   F
(PID.TID 0000.0001)     ;
(PID.TID 0000.0001) PTRACERS_useKPP = /* apply KPP scheme */
(PID.TID 0000.0001)                   T
(PID.TID 0000.0001)     ;
(PID.TID 0000.0001) PTRACERS_ref = /* Reference vertical profile */
(PID.TID 0000.0001)    23 @  0.000000000000000E+00              /* K =  1: 23 */
(PID.TID 0000.0001)     ;
(PID.TID 0000.0001) PTRACERS_EvPrRn =/* tracer conc. in Evap. & Rain */
(PID.TID 0000.0001)                 1.234567000000000E+05
(PID.TID 0000.0001)     ;
(PID.TID 0000.0001)  -----------------------------------
(PID.TID 0000.0001)  tracer number :  210
(PID.TID 0000.0001) PTRACERS_names = /* Tracer short name */
(PID.TID 0000.0001)               'Chl01'
(PID.TID 0000.0001)     ;
(PID.TID 0000.0001) PTRACERS_long_names = /* Tracer long name */
(PID.TID 0000.0001)               ''
(PID.TID 0000.0001)     ;
(PID.TID 0000.0001) PTRACERS_ioLabel = /* tracer IO Label */
(PID.TID 0000.0001)               '2g'
(PID.TID 0000.0001)     ;
(PID.TID 0000.0001) PTRACERS_advScheme = /* Advection Scheme */
(PID.TID 0000.0001)                      33
(PID.TID 0000.0001)     ;
(PID.TID 0000.0001) PTRACERS_SOM_Advection = /* tracer uses SOM advection scheme */
(PID.TID 0000.0001)                   F
(PID.TID 0000.0001)     ;
(PID.TID 0000.0001) PTRACERS_ImplVertAdv = /* implicit vert. advection flag */
(PID.TID 0000.0001)                   F
(PID.TID 0000.0001)     ;
(PID.TID 0000.0001) PTRACERS_diffKh = /* Laplacian Diffusivity */
(PID.TID 0000.0001)                 0.000000000000000E+00
(PID.TID 0000.0001)     ;
(PID.TID 0000.0001) PTRACERS_diffK4 = /* Biharmonic Diffusivity */
(PID.TID 0000.0001)                 0.000000000000000E+00
(PID.TID 0000.0001)     ;
(PID.TID 0000.0001) PTRACERS_diffKrNr = /* Vertical Diffusivity */
(PID.TID 0000.0001)    23 @  1.000000000000000E-05              /* K =  1: 23 */
(PID.TID 0000.0001)     ;
(PID.TID 0000.0001) PTRACERS_useGMRedi = /* apply GM-Redi */
(PID.TID 0000.0001)                   T
(PID.TID 0000.0001)     ;
(PID.TID 0000.0001) PTRACERS_useDWNSLP = /* apply DOWN-SLOPE Flow */
(PID.TID 0000.0001)                   F
(PID.TID 0000.0001)     ;
(PID.TID 0000.0001) PTRACERS_useKPP = /* apply KPP scheme */
(PID.TID 0000.0001)                   T
(PID.TID 0000.0001)     ;
(PID.TID 0000.0001) PTRACERS_ref = /* Reference vertical profile */
(PID.TID 0000.0001)    23 @  0.000000000000000E+00              /* K =  1: 23 */
(PID.TID 0000.0001)     ;
(PID.TID 0000.0001) PTRACERS_EvPrRn =/* tracer conc. in Evap. & Rain */
(PID.TID 0000.0001)                 1.234567000000000E+05
(PID.TID 0000.0001)     ;
(PID.TID 0000.0001)  -----------------------------------
(PID.TID 0000.0001)  tracer number :  211
(PID.TID 0000.0001) PTRACERS_names = /* Tracer short name */
(PID.TID 0000.0001)               'Chl02'
(PID.TID 0000.0001)     ;
(PID.TID 0000.0001) PTRACERS_long_names = /* Tracer long name */
(PID.TID 0000.0001)               ''
(PID.TID 0000.0001)     ;
(PID.TID 0000.0001) PTRACERS_ioLabel = /* tracer IO Label */
(PID.TID 0000.0001)               '2h'
(PID.TID 0000.0001)     ;
(PID.TID 0000.0001) PTRACERS_advScheme = /* Advection Scheme */
(PID.TID 0000.0001)                      33
(PID.TID 0000.0001)     ;
(PID.TID 0000.0001) PTRACERS_SOM_Advection = /* tracer uses SOM advection scheme */
(PID.TID 0000.0001)                   F
(PID.TID 0000.0001)     ;
(PID.TID 0000.0001) PTRACERS_ImplVertAdv = /* implicit vert. advection flag */
(PID.TID 0000.0001)                   F
(PID.TID 0000.0001)     ;
(PID.TID 0000.0001) PTRACERS_diffKh = /* Laplacian Diffusivity */
(PID.TID 0000.0001)                 0.000000000000000E+00
(PID.TID 0000.0001)     ;
(PID.TID 0000.0001) PTRACERS_diffK4 = /* Biharmonic Diffusivity */
(PID.TID 0000.0001)                 0.000000000000000E+00
(PID.TID 0000.0001)     ;
(PID.TID 0000.0001) PTRACERS_diffKrNr = /* Vertical Diffusivity */
(PID.TID 0000.0001)    23 @  1.000000000000000E-05              /* K =  1: 23 */
(PID.TID 0000.0001)     ;
(PID.TID 0000.0001) PTRACERS_useGMRedi = /* apply GM-Redi */
(PID.TID 0000.0001)                   T
(PID.TID 0000.0001)     ;
(PID.TID 0000.0001) PTRACERS_useDWNSLP = /* apply DOWN-SLOPE Flow */
(PID.TID 0000.0001)                   F
(PID.TID 0000.0001)     ;
(PID.TID 0000.0001) PTRACERS_useKPP = /* apply KPP scheme */
(PID.TID 0000.0001)                   T
(PID.TID 0000.0001)     ;
(PID.TID 0000.0001) PTRACERS_ref = /* Reference vertical profile */
(PID.TID 0000.0001)    23 @  0.000000000000000E+00              /* K =  1: 23 */
(PID.TID 0000.0001)     ;
(PID.TID 0000.0001) PTRACERS_EvPrRn =/* tracer conc. in Evap. & Rain */
(PID.TID 0000.0001)                 1.234567000000000E+05
(PID.TID 0000.0001)     ;
(PID.TID 0000.0001)  -----------------------------------
(PID.TID 0000.0001)  tracer number :  212
(PID.TID 0000.0001) PTRACERS_names = /* Tracer short name */
(PID.TID 0000.0001)               'Chl03'
(PID.TID 0000.0001)     ;
(PID.TID 0000.0001) PTRACERS_long_names = /* Tracer long name */
(PID.TID 0000.0001)               ''
(PID.TID 0000.0001)     ;
(PID.TID 0000.0001) PTRACERS_ioLabel = /* tracer IO Label */
(PID.TID 0000.0001)               '2i'
(PID.TID 0000.0001)     ;
(PID.TID 0000.0001) PTRACERS_advScheme = /* Advection Scheme */
(PID.TID 0000.0001)                      33
(PID.TID 0000.0001)     ;
(PID.TID 0000.0001) PTRACERS_SOM_Advection = /* tracer uses SOM advection scheme */
(PID.TID 0000.0001)                   F
(PID.TID 0000.0001)     ;
(PID.TID 0000.0001) PTRACERS_ImplVertAdv = /* implicit vert. advection flag */
(PID.TID 0000.0001)                   F
(PID.TID 0000.0001)     ;
(PID.TID 0000.0001) PTRACERS_diffKh = /* Laplacian Diffusivity */
(PID.TID 0000.0001)                 0.000000000000000E+00
(PID.TID 0000.0001)     ;
(PID.TID 0000.0001) PTRACERS_diffK4 = /* Biharmonic Diffusivity */
(PID.TID 0000.0001)                 0.000000000000000E+00
(PID.TID 0000.0001)     ;
(PID.TID 0000.0001) PTRACERS_diffKrNr = /* Vertical Diffusivity */
(PID.TID 0000.0001)    23 @  1.000000000000000E-05              /* K =  1: 23 */
(PID.TID 0000.0001)     ;
(PID.TID 0000.0001) PTRACERS_useGMRedi = /* apply GM-Redi */
(PID.TID 0000.0001)                   T
(PID.TID 0000.0001)     ;
(PID.TID 0000.0001) PTRACERS_useDWNSLP = /* apply DOWN-SLOPE Flow */
(PID.TID 0000.0001)                   F
(PID.TID 0000.0001)     ;
(PID.TID 0000.0001) PTRACERS_useKPP = /* apply KPP scheme */
(PID.TID 0000.0001)                   T
(PID.TID 0000.0001)     ;
(PID.TID 0000.0001) PTRACERS_ref = /* Reference vertical profile */
(PID.TID 0000.0001)    23 @  0.000000000000000E+00              /* K =  1: 23 */
(PID.TID 0000.0001)     ;
(PID.TID 0000.0001) PTRACERS_EvPrRn =/* tracer conc. in Evap. & Rain */
(PID.TID 0000.0001)                 1.234567000000000E+05
(PID.TID 0000.0001)     ;
(PID.TID 0000.0001)  -----------------------------------
(PID.TID 0000.0001)  tracer number :  213
(PID.TID 0000.0001) PTRACERS_names = /* Tracer short name */
(PID.TID 0000.0001)               'Chl04'
(PID.TID 0000.0001)     ;
(PID.TID 0000.0001) PTRACERS_long_names = /* Tracer long name */
(PID.TID 0000.0001)               ''
(PID.TID 0000.0001)     ;
(PID.TID 0000.0001) PTRACERS_ioLabel = /* tracer IO Label */
(PID.TID 0000.0001)               '2j'
(PID.TID 0000.0001)     ;
(PID.TID 0000.0001) PTRACERS_advScheme = /* Advection Scheme */
(PID.TID 0000.0001)                      33
(PID.TID 0000.0001)     ;
(PID.TID 0000.0001) PTRACERS_SOM_Advection = /* tracer uses SOM advection scheme */
(PID.TID 0000.0001)                   F
(PID.TID 0000.0001)     ;
(PID.TID 0000.0001) PTRACERS_ImplVertAdv = /* implicit vert. advection flag */
(PID.TID 0000.0001)                   F
(PID.TID 0000.0001)     ;
(PID.TID 0000.0001) PTRACERS_diffKh = /* Laplacian Diffusivity */
(PID.TID 0000.0001)                 0.000000000000000E+00
(PID.TID 0000.0001)     ;
(PID.TID 0000.0001) PTRACERS_diffK4 = /* Biharmonic Diffusivity */
(PID.TID 0000.0001)                 0.000000000000000E+00
(PID.TID 0000.0001)     ;
(PID.TID 0000.0001) PTRACERS_diffKrNr = /* Vertical Diffusivity */
(PID.TID 0000.0001)    23 @  1.000000000000000E-05              /* K =  1: 23 */
(PID.TID 0000.0001)     ;
(PID.TID 0000.0001) PTRACERS_useGMRedi = /* apply GM-Redi */
(PID.TID 0000.0001)                   T
(PID.TID 0000.0001)     ;
(PID.TID 0000.0001) PTRACERS_useDWNSLP = /* apply DOWN-SLOPE Flow */
(PID.TID 0000.0001)                   F
(PID.TID 0000.0001)     ;
(PID.TID 0000.0001) PTRACERS_useKPP = /* apply KPP scheme */
(PID.TID 0000.0001)                   T
(PID.TID 0000.0001)     ;
(PID.TID 0000.0001) PTRACERS_ref = /* Reference vertical profile */
(PID.TID 0000.0001)    23 @  0.000000000000000E+00              /* K =  1: 23 */
(PID.TID 0000.0001)     ;
(PID.TID 0000.0001) PTRACERS_EvPrRn =/* tracer conc. in Evap. & Rain */
(PID.TID 0000.0001)                 1.234567000000000E+05
(PID.TID 0000.0001)     ;
(PID.TID 0000.0001)  -----------------------------------
(PID.TID 0000.0001)  tracer number :  214
(PID.TID 0000.0001) PTRACERS_names = /* Tracer short name */
(PID.TID 0000.0001)               'Chl05'
(PID.TID 0000.0001)     ;
(PID.TID 0000.0001) PTRACERS_long_names = /* Tracer long name */
(PID.TID 0000.0001)               ''
(PID.TID 0000.0001)     ;
(PID.TID 0000.0001) PTRACERS_ioLabel = /* tracer IO Label */
(PID.TID 0000.0001)               '2k'
(PID.TID 0000.0001)     ;
(PID.TID 0000.0001) PTRACERS_advScheme = /* Advection Scheme */
(PID.TID 0000.0001)                      33
(PID.TID 0000.0001)     ;
(PID.TID 0000.0001) PTRACERS_SOM_Advection = /* tracer uses SOM advection scheme */
(PID.TID 0000.0001)                   F
(PID.TID 0000.0001)     ;
(PID.TID 0000.0001) PTRACERS_ImplVertAdv = /* implicit vert. advection flag */
(PID.TID 0000.0001)                   F
(PID.TID 0000.0001)     ;
(PID.TID 0000.0001) PTRACERS_diffKh = /* Laplacian Diffusivity */
(PID.TID 0000.0001)                 0.000000000000000E+00
(PID.TID 0000.0001)     ;
(PID.TID 0000.0001) PTRACERS_diffK4 = /* Biharmonic Diffusivity */
(PID.TID 0000.0001)                 0.000000000000000E+00
(PID.TID 0000.0001)     ;
(PID.TID 0000.0001) PTRACERS_diffKrNr = /* Vertical Diffusivity */
(PID.TID 0000.0001)    23 @  1.000000000000000E-05              /* K =  1: 23 */
(PID.TID 0000.0001)     ;
(PID.TID 0000.0001) PTRACERS_useGMRedi = /* apply GM-Redi */
(PID.TID 0000.0001)                   T
(PID.TID 0000.0001)     ;
(PID.TID 0000.0001) PTRACERS_useDWNSLP = /* apply DOWN-SLOPE Flow */
(PID.TID 0000.0001)                   F
(PID.TID 0000.0001)     ;
(PID.TID 0000.0001) PTRACERS_useKPP = /* apply KPP scheme */
(PID.TID 0000.0001)                   T
(PID.TID 0000.0001)     ;
(PID.TID 0000.0001) PTRACERS_ref = /* Reference vertical profile */
(PID.TID 0000.0001)    23 @  0.000000000000000E+00              /* K =  1: 23 */
(PID.TID 0000.0001)     ;
(PID.TID 0000.0001) PTRACERS_EvPrRn =/* tracer conc. in Evap. & Rain */
(PID.TID 0000.0001)                 1.234567000000000E+05
(PID.TID 0000.0001)     ;
(PID.TID 0000.0001)  -----------------------------------
(PID.TID 0000.0001)  tracer number :  215
(PID.TID 0000.0001) PTRACERS_names = /* Tracer short name */
(PID.TID 0000.0001)               'Chl06'
(PID.TID 0000.0001)     ;
(PID.TID 0000.0001) PTRACERS_long_names = /* Tracer long name */
(PID.TID 0000.0001)               ''
(PID.TID 0000.0001)     ;
(PID.TID 0000.0001) PTRACERS_ioLabel = /* tracer IO Label */
(PID.TID 0000.0001)               '2l'
(PID.TID 0000.0001)     ;
(PID.TID 0000.0001) PTRACERS_advScheme = /* Advection Scheme */
(PID.TID 0000.0001)                      33
(PID.TID 0000.0001)     ;
(PID.TID 0000.0001) PTRACERS_SOM_Advection = /* tracer uses SOM advection scheme */
(PID.TID 0000.0001)                   F
(PID.TID 0000.0001)     ;
(PID.TID 0000.0001) PTRACERS_ImplVertAdv = /* implicit vert. advection flag */
(PID.TID 0000.0001)                   F
(PID.TID 0000.0001)     ;
(PID.TID 0000.0001) PTRACERS_diffKh = /* Laplacian Diffusivity */
(PID.TID 0000.0001)                 0.000000000000000E+00
(PID.TID 0000.0001)     ;
(PID.TID 0000.0001) PTRACERS_diffK4 = /* Biharmonic Diffusivity */
(PID.TID 0000.0001)                 0.000000000000000E+00
(PID.TID 0000.0001)     ;
(PID.TID 0000.0001) PTRACERS_diffKrNr = /* Vertical Diffusivity */
(PID.TID 0000.0001)    23 @  1.000000000000000E-05              /* K =  1: 23 */
(PID.TID 0000.0001)     ;
(PID.TID 0000.0001) PTRACERS_useGMRedi = /* apply GM-Redi */
(PID.TID 0000.0001)                   T
(PID.TID 0000.0001)     ;
(PID.TID 0000.0001) PTRACERS_useDWNSLP = /* apply DOWN-SLOPE Flow */
(PID.TID 0000.0001)                   F
(PID.TID 0000.0001)     ;
(PID.TID 0000.0001) PTRACERS_useKPP = /* apply KPP scheme */
(PID.TID 0000.0001)                   T
(PID.TID 0000.0001)     ;
(PID.TID 0000.0001) PTRACERS_ref = /* Reference vertical profile */
(PID.TID 0000.0001)    23 @  0.000000000000000E+00              /* K =  1: 23 */
(PID.TID 0000.0001)     ;
(PID.TID 0000.0001) PTRACERS_EvPrRn =/* tracer conc. in Evap. & Rain */
(PID.TID 0000.0001)                 1.234567000000000E+05
(PID.TID 0000.0001)     ;
(PID.TID 0000.0001)  -----------------------------------
(PID.TID 0000.0001)  tracer number :  216
(PID.TID 0000.0001) PTRACERS_names = /* Tracer short name */
(PID.TID 0000.0001)               'Chl07'
(PID.TID 0000.0001)     ;
(PID.TID 0000.0001) PTRACERS_long_names = /* Tracer long name */
(PID.TID 0000.0001)               ''
(PID.TID 0000.0001)     ;
(PID.TID 0000.0001) PTRACERS_ioLabel = /* tracer IO Label */
(PID.TID 0000.0001)               '2m'
(PID.TID 0000.0001)     ;
(PID.TID 0000.0001) PTRACERS_advScheme = /* Advection Scheme */
(PID.TID 0000.0001)                      33
(PID.TID 0000.0001)     ;
(PID.TID 0000.0001) PTRACERS_SOM_Advection = /* tracer uses SOM advection scheme */
(PID.TID 0000.0001)                   F
(PID.TID 0000.0001)     ;
(PID.TID 0000.0001) PTRACERS_ImplVertAdv = /* implicit vert. advection flag */
(PID.TID 0000.0001)                   F
(PID.TID 0000.0001)     ;
(PID.TID 0000.0001) PTRACERS_diffKh = /* Laplacian Diffusivity */
(PID.TID 0000.0001)                 0.000000000000000E+00
(PID.TID 0000.0001)     ;
(PID.TID 0000.0001) PTRACERS_diffK4 = /* Biharmonic Diffusivity */
(PID.TID 0000.0001)                 0.000000000000000E+00
(PID.TID 0000.0001)     ;
(PID.TID 0000.0001) PTRACERS_diffKrNr = /* Vertical Diffusivity */
(PID.TID 0000.0001)    23 @  1.000000000000000E-05              /* K =  1: 23 */
(PID.TID 0000.0001)     ;
(PID.TID 0000.0001) PTRACERS_useGMRedi = /* apply GM-Redi */
(PID.TID 0000.0001)                   T
(PID.TID 0000.0001)     ;
(PID.TID 0000.0001) PTRACERS_useDWNSLP = /* apply DOWN-SLOPE Flow */
(PID.TID 0000.0001)                   F
(PID.TID 0000.0001)     ;
(PID.TID 0000.0001) PTRACERS_useKPP = /* apply KPP scheme */
(PID.TID 0000.0001)                   T
(PID.TID 0000.0001)     ;
(PID.TID 0000.0001) PTRACERS_ref = /* Reference vertical profile */
(PID.TID 0000.0001)    23 @  0.000000000000000E+00              /* K =  1: 23 */
(PID.TID 0000.0001)     ;
(PID.TID 0000.0001) PTRACERS_EvPrRn =/* tracer conc. in Evap. & Rain */
(PID.TID 0000.0001)                 1.234567000000000E+05
(PID.TID 0000.0001)     ;
(PID.TID 0000.0001)  -----------------------------------
(PID.TID 0000.0001)  tracer number :  217
(PID.TID 0000.0001) PTRACERS_names = /* Tracer short name */
(PID.TID 0000.0001)               'Chl08'
(PID.TID 0000.0001)     ;
(PID.TID 0000.0001) PTRACERS_long_names = /* Tracer long name */
(PID.TID 0000.0001)               ''
(PID.TID 0000.0001)     ;
(PID.TID 0000.0001) PTRACERS_ioLabel = /* tracer IO Label */
(PID.TID 0000.0001)               '2n'
(PID.TID 0000.0001)     ;
(PID.TID 0000.0001) PTRACERS_advScheme = /* Advection Scheme */
(PID.TID 0000.0001)                      33
(PID.TID 0000.0001)     ;
(PID.TID 0000.0001) PTRACERS_SOM_Advection = /* tracer uses SOM advection scheme */
(PID.TID 0000.0001)                   F
(PID.TID 0000.0001)     ;
(PID.TID 0000.0001) PTRACERS_ImplVertAdv = /* implicit vert. advection flag */
(PID.TID 0000.0001)                   F
(PID.TID 0000.0001)     ;
(PID.TID 0000.0001) PTRACERS_diffKh = /* Laplacian Diffusivity */
(PID.TID 0000.0001)                 0.000000000000000E+00
(PID.TID 0000.0001)     ;
(PID.TID 0000.0001) PTRACERS_diffK4 = /* Biharmonic Diffusivity */
(PID.TID 0000.0001)                 0.000000000000000E+00
(PID.TID 0000.0001)     ;
(PID.TID 0000.0001) PTRACERS_diffKrNr = /* Vertical Diffusivity */
(PID.TID 0000.0001)    23 @  1.000000000000000E-05              /* K =  1: 23 */
(PID.TID 0000.0001)     ;
(PID.TID 0000.0001) PTRACERS_useGMRedi = /* apply GM-Redi */
(PID.TID 0000.0001)                   T
(PID.TID 0000.0001)     ;
(PID.TID 0000.0001) PTRACERS_useDWNSLP = /* apply DOWN-SLOPE Flow */
(PID.TID 0000.0001)                   F
(PID.TID 0000.0001)     ;
(PID.TID 0000.0001) PTRACERS_useKPP = /* apply KPP scheme */
(PID.TID 0000.0001)                   T
(PID.TID 0000.0001)     ;
(PID.TID 0000.0001) PTRACERS_ref = /* Reference vertical profile */
(PID.TID 0000.0001)    23 @  0.000000000000000E+00              /* K =  1: 23 */
(PID.TID 0000.0001)     ;
(PID.TID 0000.0001) PTRACERS_EvPrRn =/* tracer conc. in Evap. & Rain */
(PID.TID 0000.0001)                 1.234567000000000E+05
(PID.TID 0000.0001)     ;
(PID.TID 0000.0001)  -----------------------------------
(PID.TID 0000.0001)  tracer number :  218
(PID.TID 0000.0001) PTRACERS_names = /* Tracer short name */
(PID.TID 0000.0001)               'Chl09'
(PID.TID 0000.0001)     ;
(PID.TID 0000.0001) PTRACERS_long_names = /* Tracer long name */
(PID.TID 0000.0001)               ''
(PID.TID 0000.0001)     ;
(PID.TID 0000.0001) PTRACERS_ioLabel = /* tracer IO Label */
(PID.TID 0000.0001)               '2o'
(PID.TID 0000.0001)     ;
(PID.TID 0000.0001) PTRACERS_advScheme = /* Advection Scheme */
(PID.TID 0000.0001)                      33
(PID.TID 0000.0001)     ;
(PID.TID 0000.0001) PTRACERS_SOM_Advection = /* tracer uses SOM advection scheme */
(PID.TID 0000.0001)                   F
(PID.TID 0000.0001)     ;
(PID.TID 0000.0001) PTRACERS_ImplVertAdv = /* implicit vert. advection flag */
(PID.TID 0000.0001)                   F
(PID.TID 0000.0001)     ;
(PID.TID 0000.0001) PTRACERS_diffKh = /* Laplacian Diffusivity */
(PID.TID 0000.0001)                 0.000000000000000E+00
(PID.TID 0000.0001)     ;
(PID.TID 0000.0001) PTRACERS_diffK4 = /* Biharmonic Diffusivity */
(PID.TID 0000.0001)                 0.000000000000000E+00
(PID.TID 0000.0001)     ;
(PID.TID 0000.0001) PTRACERS_diffKrNr = /* Vertical Diffusivity */
(PID.TID 0000.0001)    23 @  1.000000000000000E-05              /* K =  1: 23 */
(PID.TID 0000.0001)     ;
(PID.TID 0000.0001) PTRACERS_useGMRedi = /* apply GM-Redi */
(PID.TID 0000.0001)                   T
(PID.TID 0000.0001)     ;
(PID.TID 0000.0001) PTRACERS_useDWNSLP = /* apply DOWN-SLOPE Flow */
(PID.TID 0000.0001)                   F
(PID.TID 0000.0001)     ;
(PID.TID 0000.0001) PTRACERS_useKPP = /* apply KPP scheme */
(PID.TID 0000.0001)                   T
(PID.TID 0000.0001)     ;
(PID.TID 0000.0001) PTRACERS_ref = /* Reference vertical profile */
(PID.TID 0000.0001)    23 @  0.000000000000000E+00              /* K =  1: 23 */
(PID.TID 0000.0001)     ;
(PID.TID 0000.0001) PTRACERS_EvPrRn =/* tracer conc. in Evap. & Rain */
(PID.TID 0000.0001)                 1.234567000000000E+05
(PID.TID 0000.0001)     ;
(PID.TID 0000.0001)  -----------------------------------
(PID.TID 0000.0001)  tracer number :  219
(PID.TID 0000.0001) PTRACERS_names = /* Tracer short name */
(PID.TID 0000.0001)               'Chl10'
(PID.TID 0000.0001)     ;
(PID.TID 0000.0001) PTRACERS_long_names = /* Tracer long name */
(PID.TID 0000.0001)               ''
(PID.TID 0000.0001)     ;
(PID.TID 0000.0001) PTRACERS_ioLabel = /* tracer IO Label */
(PID.TID 0000.0001)               '2p'
(PID.TID 0000.0001)     ;
(PID.TID 0000.0001) PTRACERS_advScheme = /* Advection Scheme */
(PID.TID 0000.0001)                      33
(PID.TID 0000.0001)     ;
(PID.TID 0000.0001) PTRACERS_SOM_Advection = /* tracer uses SOM advection scheme */
(PID.TID 0000.0001)                   F
(PID.TID 0000.0001)     ;
(PID.TID 0000.0001) PTRACERS_ImplVertAdv = /* implicit vert. advection flag */
(PID.TID 0000.0001)                   F
(PID.TID 0000.0001)     ;
(PID.TID 0000.0001) PTRACERS_diffKh = /* Laplacian Diffusivity */
(PID.TID 0000.0001)                 0.000000000000000E+00
(PID.TID 0000.0001)     ;
(PID.TID 0000.0001) PTRACERS_diffK4 = /* Biharmonic Diffusivity */
(PID.TID 0000.0001)                 0.000000000000000E+00
(PID.TID 0000.0001)     ;
(PID.TID 0000.0001) PTRACERS_diffKrNr = /* Vertical Diffusivity */
(PID.TID 0000.0001)    23 @  1.000000000000000E-05              /* K =  1: 23 */
(PID.TID 0000.0001)     ;
(PID.TID 0000.0001) PTRACERS_useGMRedi = /* apply GM-Redi */
(PID.TID 0000.0001)                   T
(PID.TID 0000.0001)     ;
(PID.TID 0000.0001) PTRACERS_useDWNSLP = /* apply DOWN-SLOPE Flow */
(PID.TID 0000.0001)                   F
(PID.TID 0000.0001)     ;
(PID.TID 0000.0001) PTRACERS_useKPP = /* apply KPP scheme */
(PID.TID 0000.0001)                   T
(PID.TID 0000.0001)     ;
(PID.TID 0000.0001) PTRACERS_ref = /* Reference vertical profile */
(PID.TID 0000.0001)    23 @  0.000000000000000E+00              /* K =  1: 23 */
(PID.TID 0000.0001)     ;
(PID.TID 0000.0001) PTRACERS_EvPrRn =/* tracer conc. in Evap. & Rain */
(PID.TID 0000.0001)                 1.234567000000000E+05
(PID.TID 0000.0001)     ;
(PID.TID 0000.0001)  -----------------------------------
(PID.TID 0000.0001)  tracer number :  220
(PID.TID 0000.0001) PTRACERS_names = /* Tracer short name */
(PID.TID 0000.0001)               'Chl11'
(PID.TID 0000.0001)     ;
(PID.TID 0000.0001) PTRACERS_long_names = /* Tracer long name */
(PID.TID 0000.0001)               ''
(PID.TID 0000.0001)     ;
(PID.TID 0000.0001) PTRACERS_ioLabel = /* tracer IO Label */
(PID.TID 0000.0001)               '2q'
(PID.TID 0000.0001)     ;
(PID.TID 0000.0001) PTRACERS_advScheme = /* Advection Scheme */
(PID.TID 0000.0001)                      33
(PID.TID 0000.0001)     ;
(PID.TID 0000.0001) PTRACERS_SOM_Advection = /* tracer uses SOM advection scheme */
(PID.TID 0000.0001)                   F
(PID.TID 0000.0001)     ;
(PID.TID 0000.0001) PTRACERS_ImplVertAdv = /* implicit vert. advection flag */
(PID.TID 0000.0001)                   F
(PID.TID 0000.0001)     ;
(PID.TID 0000.0001) PTRACERS_diffKh = /* Laplacian Diffusivity */
(PID.TID 0000.0001)                 0.000000000000000E+00
(PID.TID 0000.0001)     ;
(PID.TID 0000.0001) PTRACERS_diffK4 = /* Biharmonic Diffusivity */
(PID.TID 0000.0001)                 0.000000000000000E+00
(PID.TID 0000.0001)     ;
(PID.TID 0000.0001) PTRACERS_diffKrNr = /* Vertical Diffusivity */
(PID.TID 0000.0001)    23 @  1.000000000000000E-05              /* K =  1: 23 */
(PID.TID 0000.0001)     ;
(PID.TID 0000.0001) PTRACERS_useGMRedi = /* apply GM-Redi */
(PID.TID 0000.0001)                   T
(PID.TID 0000.0001)     ;
(PID.TID 0000.0001) PTRACERS_useDWNSLP = /* apply DOWN-SLOPE Flow */
(PID.TID 0000.0001)                   F
(PID.TID 0000.0001)     ;
(PID.TID 0000.0001) PTRACERS_useKPP = /* apply KPP scheme */
(PID.TID 0000.0001)                   T
(PID.TID 0000.0001)     ;
(PID.TID 0000.0001) PTRACERS_ref = /* Reference vertical profile */
(PID.TID 0000.0001)    23 @  0.000000000000000E+00              /* K =  1: 23 */
(PID.TID 0000.0001)     ;
(PID.TID 0000.0001) PTRACERS_EvPrRn =/* tracer conc. in Evap. & Rain */
(PID.TID 0000.0001)                 1.234567000000000E+05
(PID.TID 0000.0001)     ;
(PID.TID 0000.0001)  -----------------------------------
(PID.TID 0000.0001)  tracer number :  221
(PID.TID 0000.0001) PTRACERS_names = /* Tracer short name */
(PID.TID 0000.0001)               'Chl12'
(PID.TID 0000.0001)     ;
(PID.TID 0000.0001) PTRACERS_long_names = /* Tracer long name */
(PID.TID 0000.0001)               ''
(PID.TID 0000.0001)     ;
(PID.TID 0000.0001) PTRACERS_ioLabel = /* tracer IO Label */
(PID.TID 0000.0001)               '2r'
(PID.TID 0000.0001)     ;
(PID.TID 0000.0001) PTRACERS_advScheme = /* Advection Scheme */
(PID.TID 0000.0001)                      33
(PID.TID 0000.0001)     ;
(PID.TID 0000.0001) PTRACERS_SOM_Advection = /* tracer uses SOM advection scheme */
(PID.TID 0000.0001)                   F
(PID.TID 0000.0001)     ;
(PID.TID 0000.0001) PTRACERS_ImplVertAdv = /* implicit vert. advection flag */
(PID.TID 0000.0001)                   F
(PID.TID 0000.0001)     ;
(PID.TID 0000.0001) PTRACERS_diffKh = /* Laplacian Diffusivity */
(PID.TID 0000.0001)                 0.000000000000000E+00
(PID.TID 0000.0001)     ;
(PID.TID 0000.0001) PTRACERS_diffK4 = /* Biharmonic Diffusivity */
(PID.TID 0000.0001)                 0.000000000000000E+00
(PID.TID 0000.0001)     ;
(PID.TID 0000.0001) PTRACERS_diffKrNr = /* Vertical Diffusivity */
(PID.TID 0000.0001)    23 @  1.000000000000000E-05              /* K =  1: 23 */
(PID.TID 0000.0001)     ;
(PID.TID 0000.0001) PTRACERS_useGMRedi = /* apply GM-Redi */
(PID.TID 0000.0001)                   T
(PID.TID 0000.0001)     ;
(PID.TID 0000.0001) PTRACERS_useDWNSLP = /* apply DOWN-SLOPE Flow */
(PID.TID 0000.0001)                   F
(PID.TID 0000.0001)     ;
(PID.TID 0000.0001) PTRACERS_useKPP = /* apply KPP scheme */
(PID.TID 0000.0001)                   T
(PID.TID 0000.0001)     ;
(PID.TID 0000.0001) PTRACERS_ref = /* Reference vertical profile */
(PID.TID 0000.0001)    23 @  0.000000000000000E+00              /* K =  1: 23 */
(PID.TID 0000.0001)     ;
(PID.TID 0000.0001) PTRACERS_EvPrRn =/* tracer conc. in Evap. & Rain */
(PID.TID 0000.0001)                 1.234567000000000E+05
(PID.TID 0000.0001)     ;
(PID.TID 0000.0001)  -----------------------------------
(PID.TID 0000.0001)  tracer number :  222
(PID.TID 0000.0001) PTRACERS_names = /* Tracer short name */
(PID.TID 0000.0001)               'Chl13'
(PID.TID 0000.0001)     ;
(PID.TID 0000.0001) PTRACERS_long_names = /* Tracer long name */
(PID.TID 0000.0001)               ''
(PID.TID 0000.0001)     ;
(PID.TID 0000.0001) PTRACERS_ioLabel = /* tracer IO Label */
(PID.TID 0000.0001)               '2s'
(PID.TID 0000.0001)     ;
(PID.TID 0000.0001) PTRACERS_advScheme = /* Advection Scheme */
(PID.TID 0000.0001)                      33
(PID.TID 0000.0001)     ;
(PID.TID 0000.0001) PTRACERS_SOM_Advection = /* tracer uses SOM advection scheme */
(PID.TID 0000.0001)                   F
(PID.TID 0000.0001)     ;
(PID.TID 0000.0001) PTRACERS_ImplVertAdv = /* implicit vert. advection flag */
(PID.TID 0000.0001)                   F
(PID.TID 0000.0001)     ;
(PID.TID 0000.0001) PTRACERS_diffKh = /* Laplacian Diffusivity */
(PID.TID 0000.0001)                 0.000000000000000E+00
(PID.TID 0000.0001)     ;
(PID.TID 0000.0001) PTRACERS_diffK4 = /* Biharmonic Diffusivity */
(PID.TID 0000.0001)                 0.000000000000000E+00
(PID.TID 0000.0001)     ;
(PID.TID 0000.0001) PTRACERS_diffKrNr = /* Vertical Diffusivity */
(PID.TID 0000.0001)    23 @  1.000000000000000E-05              /* K =  1: 23 */
(PID.TID 0000.0001)     ;
(PID.TID 0000.0001) PTRACERS_useGMRedi = /* apply GM-Redi */
(PID.TID 0000.0001)                   T
(PID.TID 0000.0001)     ;
(PID.TID 0000.0001) PTRACERS_useDWNSLP = /* apply DOWN-SLOPE Flow */
(PID.TID 0000.0001)                   F
(PID.TID 0000.0001)     ;
(PID.TID 0000.0001) PTRACERS_useKPP = /* apply KPP scheme */
(PID.TID 0000.0001)                   T
(PID.TID 0000.0001)     ;
(PID.TID 0000.0001) PTRACERS_ref = /* Reference vertical profile */
(PID.TID 0000.0001)    23 @  0.000000000000000E+00              /* K =  1: 23 */
(PID.TID 0000.0001)     ;
(PID.TID 0000.0001) PTRACERS_EvPrRn =/* tracer conc. in Evap. & Rain */
(PID.TID 0000.0001)                 1.234567000000000E+05
(PID.TID 0000.0001)     ;
(PID.TID 0000.0001)  -----------------------------------
(PID.TID 0000.0001)  tracer number :  223
(PID.TID 0000.0001) PTRACERS_names = /* Tracer short name */
(PID.TID 0000.0001)               'Chl14'
(PID.TID 0000.0001)     ;
(PID.TID 0000.0001) PTRACERS_long_names = /* Tracer long name */
(PID.TID 0000.0001)               ''
(PID.TID 0000.0001)     ;
(PID.TID 0000.0001) PTRACERS_ioLabel = /* tracer IO Label */
(PID.TID 0000.0001)               '2t'
(PID.TID 0000.0001)     ;
(PID.TID 0000.0001) PTRACERS_advScheme = /* Advection Scheme */
(PID.TID 0000.0001)                      33
(PID.TID 0000.0001)     ;
(PID.TID 0000.0001) PTRACERS_SOM_Advection = /* tracer uses SOM advection scheme */
(PID.TID 0000.0001)                   F
(PID.TID 0000.0001)     ;
(PID.TID 0000.0001) PTRACERS_ImplVertAdv = /* implicit vert. advection flag */
(PID.TID 0000.0001)                   F
(PID.TID 0000.0001)     ;
(PID.TID 0000.0001) PTRACERS_diffKh = /* Laplacian Diffusivity */
(PID.TID 0000.0001)                 0.000000000000000E+00
(PID.TID 0000.0001)     ;
(PID.TID 0000.0001) PTRACERS_diffK4 = /* Biharmonic Diffusivity */
(PID.TID 0000.0001)                 0.000000000000000E+00
(PID.TID 0000.0001)     ;
(PID.TID 0000.0001) PTRACERS_diffKrNr = /* Vertical Diffusivity */
(PID.TID 0000.0001)    23 @  1.000000000000000E-05              /* K =  1: 23 */
(PID.TID 0000.0001)     ;
(PID.TID 0000.0001) PTRACERS_useGMRedi = /* apply GM-Redi */
(PID.TID 0000.0001)                   T
(PID.TID 0000.0001)     ;
(PID.TID 0000.0001) PTRACERS_useDWNSLP = /* apply DOWN-SLOPE Flow */
(PID.TID 0000.0001)                   F
(PID.TID 0000.0001)     ;
(PID.TID 0000.0001) PTRACERS_useKPP = /* apply KPP scheme */
(PID.TID 0000.0001)                   T
(PID.TID 0000.0001)     ;
(PID.TID 0000.0001) PTRACERS_ref = /* Reference vertical profile */
(PID.TID 0000.0001)    23 @  0.000000000000000E+00              /* K =  1: 23 */
(PID.TID 0000.0001)     ;
(PID.TID 0000.0001) PTRACERS_EvPrRn =/* tracer conc. in Evap. & Rain */
(PID.TID 0000.0001)                 1.234567000000000E+05
(PID.TID 0000.0001)     ;
(PID.TID 0000.0001)  -----------------------------------
(PID.TID 0000.0001)  tracer number :  224
(PID.TID 0000.0001) PTRACERS_names = /* Tracer short name */
(PID.TID 0000.0001)               'Chl15'
(PID.TID 0000.0001)     ;
(PID.TID 0000.0001) PTRACERS_long_names = /* Tracer long name */
(PID.TID 0000.0001)               ''
(PID.TID 0000.0001)     ;
(PID.TID 0000.0001) PTRACERS_ioLabel = /* tracer IO Label */
(PID.TID 0000.0001)               '2u'
(PID.TID 0000.0001)     ;
(PID.TID 0000.0001) PTRACERS_advScheme = /* Advection Scheme */
(PID.TID 0000.0001)                      33
(PID.TID 0000.0001)     ;
(PID.TID 0000.0001) PTRACERS_SOM_Advection = /* tracer uses SOM advection scheme */
(PID.TID 0000.0001)                   F
(PID.TID 0000.0001)     ;
(PID.TID 0000.0001) PTRACERS_ImplVertAdv = /* implicit vert. advection flag */
(PID.TID 0000.0001)                   F
(PID.TID 0000.0001)     ;
(PID.TID 0000.0001) PTRACERS_diffKh = /* Laplacian Diffusivity */
(PID.TID 0000.0001)                 0.000000000000000E+00
(PID.TID 0000.0001)     ;
(PID.TID 0000.0001) PTRACERS_diffK4 = /* Biharmonic Diffusivity */
(PID.TID 0000.0001)                 0.000000000000000E+00
(PID.TID 0000.0001)     ;
(PID.TID 0000.0001) PTRACERS_diffKrNr = /* Vertical Diffusivity */
(PID.TID 0000.0001)    23 @  1.000000000000000E-05              /* K =  1: 23 */
(PID.TID 0000.0001)     ;
(PID.TID 0000.0001) PTRACERS_useGMRedi = /* apply GM-Redi */
(PID.TID 0000.0001)                   T
(PID.TID 0000.0001)     ;
(PID.TID 0000.0001) PTRACERS_useDWNSLP = /* apply DOWN-SLOPE Flow */
(PID.TID 0000.0001)                   F
(PID.TID 0000.0001)     ;
(PID.TID 0000.0001) PTRACERS_useKPP = /* apply KPP scheme */
(PID.TID 0000.0001)                   T
(PID.TID 0000.0001)     ;
(PID.TID 0000.0001) PTRACERS_ref = /* Reference vertical profile */
(PID.TID 0000.0001)    23 @  0.000000000000000E+00              /* K =  1: 23 */
(PID.TID 0000.0001)     ;
(PID.TID 0000.0001) PTRACERS_EvPrRn =/* tracer conc. in Evap. & Rain */
(PID.TID 0000.0001)                 1.234567000000000E+05
(PID.TID 0000.0001)     ;
(PID.TID 0000.0001)  -----------------------------------
(PID.TID 0000.0001)  tracer number :  225
(PID.TID 0000.0001) PTRACERS_names = /* Tracer short name */
(PID.TID 0000.0001)               'Chl16'
(PID.TID 0000.0001)     ;
(PID.TID 0000.0001) PTRACERS_long_names = /* Tracer long name */
(PID.TID 0000.0001)               ''
(PID.TID 0000.0001)     ;
(PID.TID 0000.0001) PTRACERS_ioLabel = /* tracer IO Label */
(PID.TID 0000.0001)               '2v'
(PID.TID 0000.0001)     ;
(PID.TID 0000.0001) PTRACERS_advScheme = /* Advection Scheme */
(PID.TID 0000.0001)                      33
(PID.TID 0000.0001)     ;
(PID.TID 0000.0001) PTRACERS_SOM_Advection = /* tracer uses SOM advection scheme */
(PID.TID 0000.0001)                   F
(PID.TID 0000.0001)     ;
(PID.TID 0000.0001) PTRACERS_ImplVertAdv = /* implicit vert. advection flag */
(PID.TID 0000.0001)                   F
(PID.TID 0000.0001)     ;
(PID.TID 0000.0001) PTRACERS_diffKh = /* Laplacian Diffusivity */
(PID.TID 0000.0001)                 0.000000000000000E+00
(PID.TID 0000.0001)     ;
(PID.TID 0000.0001) PTRACERS_diffK4 = /* Biharmonic Diffusivity */
(PID.TID 0000.0001)                 0.000000000000000E+00
(PID.TID 0000.0001)     ;
(PID.TID 0000.0001) PTRACERS_diffKrNr = /* Vertical Diffusivity */
(PID.TID 0000.0001)    23 @  1.000000000000000E-05              /* K =  1: 23 */
(PID.TID 0000.0001)     ;
(PID.TID 0000.0001) PTRACERS_useGMRedi = /* apply GM-Redi */
(PID.TID 0000.0001)                   T
(PID.TID 0000.0001)     ;
(PID.TID 0000.0001) PTRACERS_useDWNSLP = /* apply DOWN-SLOPE Flow */
(PID.TID 0000.0001)                   F
(PID.TID 0000.0001)     ;
(PID.TID 0000.0001) PTRACERS_useKPP = /* apply KPP scheme */
(PID.TID 0000.0001)                   T
(PID.TID 0000.0001)     ;
(PID.TID 0000.0001) PTRACERS_ref = /* Reference vertical profile */
(PID.TID 0000.0001)    23 @  0.000000000000000E+00              /* K =  1: 23 */
(PID.TID 0000.0001)     ;
(PID.TID 0000.0001) PTRACERS_EvPrRn =/* tracer conc. in Evap. & Rain */
(PID.TID 0000.0001)                 1.234567000000000E+05
(PID.TID 0000.0001)     ;
(PID.TID 0000.0001)  -----------------------------------
(PID.TID 0000.0001)  tracer number :  226
(PID.TID 0000.0001) PTRACERS_names = /* Tracer short name */
(PID.TID 0000.0001)               'Chl17'
(PID.TID 0000.0001)     ;
(PID.TID 0000.0001) PTRACERS_long_names = /* Tracer long name */
(PID.TID 0000.0001)               ''
(PID.TID 0000.0001)     ;
(PID.TID 0000.0001) PTRACERS_ioLabel = /* tracer IO Label */
(PID.TID 0000.0001)               '2w'
(PID.TID 0000.0001)     ;
(PID.TID 0000.0001) PTRACERS_advScheme = /* Advection Scheme */
(PID.TID 0000.0001)                      33
(PID.TID 0000.0001)     ;
(PID.TID 0000.0001) PTRACERS_SOM_Advection = /* tracer uses SOM advection scheme */
(PID.TID 0000.0001)                   F
(PID.TID 0000.0001)     ;
(PID.TID 0000.0001) PTRACERS_ImplVertAdv = /* implicit vert. advection flag */
(PID.TID 0000.0001)                   F
(PID.TID 0000.0001)     ;
(PID.TID 0000.0001) PTRACERS_diffKh = /* Laplacian Diffusivity */
(PID.TID 0000.0001)                 0.000000000000000E+00
(PID.TID 0000.0001)     ;
(PID.TID 0000.0001) PTRACERS_diffK4 = /* Biharmonic Diffusivity */
(PID.TID 0000.0001)                 0.000000000000000E+00
(PID.TID 0000.0001)     ;
(PID.TID 0000.0001) PTRACERS_diffKrNr = /* Vertical Diffusivity */
(PID.TID 0000.0001)    23 @  1.000000000000000E-05              /* K =  1: 23 */
(PID.TID 0000.0001)     ;
(PID.TID 0000.0001) PTRACERS_useGMRedi = /* apply GM-Redi */
(PID.TID 0000.0001)                   T
(PID.TID 0000.0001)     ;
(PID.TID 0000.0001) PTRACERS_useDWNSLP = /* apply DOWN-SLOPE Flow */
(PID.TID 0000.0001)                   F
(PID.TID 0000.0001)     ;
(PID.TID 0000.0001) PTRACERS_useKPP = /* apply KPP scheme */
(PID.TID 0000.0001)                   T
(PID.TID 0000.0001)     ;
(PID.TID 0000.0001) PTRACERS_ref = /* Reference vertical profile */
(PID.TID 0000.0001)    23 @  0.000000000000000E+00              /* K =  1: 23 */
(PID.TID 0000.0001)     ;
(PID.TID 0000.0001) PTRACERS_EvPrRn =/* tracer conc. in Evap. & Rain */
(PID.TID 0000.0001)                 1.234567000000000E+05
(PID.TID 0000.0001)     ;
(PID.TID 0000.0001)  -----------------------------------
(PID.TID 0000.0001)  tracer number :  227
(PID.TID 0000.0001) PTRACERS_names = /* Tracer short name */
(PID.TID 0000.0001)               'Chl18'
(PID.TID 0000.0001)     ;
(PID.TID 0000.0001) PTRACERS_long_names = /* Tracer long name */
(PID.TID 0000.0001)               ''
(PID.TID 0000.0001)     ;
(PID.TID 0000.0001) PTRACERS_ioLabel = /* tracer IO Label */
(PID.TID 0000.0001)               '2x'
(PID.TID 0000.0001)     ;
(PID.TID 0000.0001) PTRACERS_advScheme = /* Advection Scheme */
(PID.TID 0000.0001)                      33
(PID.TID 0000.0001)     ;
(PID.TID 0000.0001) PTRACERS_SOM_Advection = /* tracer uses SOM advection scheme */
(PID.TID 0000.0001)                   F
(PID.TID 0000.0001)     ;
(PID.TID 0000.0001) PTRACERS_ImplVertAdv = /* implicit vert. advection flag */
(PID.TID 0000.0001)                   F
(PID.TID 0000.0001)     ;
(PID.TID 0000.0001) PTRACERS_diffKh = /* Laplacian Diffusivity */
(PID.TID 0000.0001)                 0.000000000000000E+00
(PID.TID 0000.0001)     ;
(PID.TID 0000.0001) PTRACERS_diffK4 = /* Biharmonic Diffusivity */
(PID.TID 0000.0001)                 0.000000000000000E+00
(PID.TID 0000.0001)     ;
(PID.TID 0000.0001) PTRACERS_diffKrNr = /* Vertical Diffusivity */
(PID.TID 0000.0001)    23 @  1.000000000000000E-05              /* K =  1: 23 */
(PID.TID 0000.0001)     ;
(PID.TID 0000.0001) PTRACERS_useGMRedi = /* apply GM-Redi */
(PID.TID 0000.0001)                   T
(PID.TID 0000.0001)     ;
(PID.TID 0000.0001) PTRACERS_useDWNSLP = /* apply DOWN-SLOPE Flow */
(PID.TID 0000.0001)                   F
(PID.TID 0000.0001)     ;
(PID.TID 0000.0001) PTRACERS_useKPP = /* apply KPP scheme */
(PID.TID 0000.0001)                   T
(PID.TID 0000.0001)     ;
(PID.TID 0000.0001) PTRACERS_ref = /* Reference vertical profile */
(PID.TID 0000.0001)    23 @  0.000000000000000E+00              /* K =  1: 23 */
(PID.TID 0000.0001)     ;
(PID.TID 0000.0001) PTRACERS_EvPrRn =/* tracer conc. in Evap. & Rain */
(PID.TID 0000.0001)                 1.234567000000000E+05
(PID.TID 0000.0001)     ;
(PID.TID 0000.0001)  -----------------------------------
(PID.TID 0000.0001)  tracer number :  228
(PID.TID 0000.0001) PTRACERS_names = /* Tracer short name */
(PID.TID 0000.0001)               'Chl19'
(PID.TID 0000.0001)     ;
(PID.TID 0000.0001) PTRACERS_long_names = /* Tracer long name */
(PID.TID 0000.0001)               ''
(PID.TID 0000.0001)     ;
(PID.TID 0000.0001) PTRACERS_ioLabel = /* tracer IO Label */
(PID.TID 0000.0001)               '2y'
(PID.TID 0000.0001)     ;
(PID.TID 0000.0001) PTRACERS_advScheme = /* Advection Scheme */
(PID.TID 0000.0001)                      33
(PID.TID 0000.0001)     ;
(PID.TID 0000.0001) PTRACERS_SOM_Advection = /* tracer uses SOM advection scheme */
(PID.TID 0000.0001)                   F
(PID.TID 0000.0001)     ;
(PID.TID 0000.0001) PTRACERS_ImplVertAdv = /* implicit vert. advection flag */
(PID.TID 0000.0001)                   F
(PID.TID 0000.0001)     ;
(PID.TID 0000.0001) PTRACERS_diffKh = /* Laplacian Diffusivity */
(PID.TID 0000.0001)                 0.000000000000000E+00
(PID.TID 0000.0001)     ;
(PID.TID 0000.0001) PTRACERS_diffK4 = /* Biharmonic Diffusivity */
(PID.TID 0000.0001)                 0.000000000000000E+00
(PID.TID 0000.0001)     ;
(PID.TID 0000.0001) PTRACERS_diffKrNr = /* Vertical Diffusivity */
(PID.TID 0000.0001)    23 @  1.000000000000000E-05              /* K =  1: 23 */
(PID.TID 0000.0001)     ;
(PID.TID 0000.0001) PTRACERS_useGMRedi = /* apply GM-Redi */
(PID.TID 0000.0001)                   T
(PID.TID 0000.0001)     ;
(PID.TID 0000.0001) PTRACERS_useDWNSLP = /* apply DOWN-SLOPE Flow */
(PID.TID 0000.0001)                   F
(PID.TID 0000.0001)     ;
(PID.TID 0000.0001) PTRACERS_useKPP = /* apply KPP scheme */
(PID.TID 0000.0001)                   T
(PID.TID 0000.0001)     ;
(PID.TID 0000.0001) PTRACERS_ref = /* Reference vertical profile */
(PID.TID 0000.0001)    23 @  0.000000000000000E+00              /* K =  1: 23 */
(PID.TID 0000.0001)     ;
(PID.TID 0000.0001) PTRACERS_EvPrRn =/* tracer conc. in Evap. & Rain */
(PID.TID 0000.0001)                 1.234567000000000E+05
(PID.TID 0000.0001)     ;
(PID.TID 0000.0001)  -----------------------------------
(PID.TID 0000.0001)  tracer number :  229
(PID.TID 0000.0001) PTRACERS_names = /* Tracer short name */
(PID.TID 0000.0001)               'Chl20'
(PID.TID 0000.0001)     ;
(PID.TID 0000.0001) PTRACERS_long_names = /* Tracer long name */
(PID.TID 0000.0001)               ''
(PID.TID 0000.0001)     ;
(PID.TID 0000.0001) PTRACERS_ioLabel = /* tracer IO Label */
(PID.TID 0000.0001)               '2z'
(PID.TID 0000.0001)     ;
(PID.TID 0000.0001) PTRACERS_advScheme = /* Advection Scheme */
(PID.TID 0000.0001)                      33
(PID.TID 0000.0001)     ;
(PID.TID 0000.0001) PTRACERS_SOM_Advection = /* tracer uses SOM advection scheme */
(PID.TID 0000.0001)                   F
(PID.TID 0000.0001)     ;
(PID.TID 0000.0001) PTRACERS_ImplVertAdv = /* implicit vert. advection flag */
(PID.TID 0000.0001)                   F
(PID.TID 0000.0001)     ;
(PID.TID 0000.0001) PTRACERS_diffKh = /* Laplacian Diffusivity */
(PID.TID 0000.0001)                 0.000000000000000E+00
(PID.TID 0000.0001)     ;
(PID.TID 0000.0001) PTRACERS_diffK4 = /* Biharmonic Diffusivity */
(PID.TID 0000.0001)                 0.000000000000000E+00
(PID.TID 0000.0001)     ;
(PID.TID 0000.0001) PTRACERS_diffKrNr = /* Vertical Diffusivity */
(PID.TID 0000.0001)    23 @  1.000000000000000E-05              /* K =  1: 23 */
(PID.TID 0000.0001)     ;
(PID.TID 0000.0001) PTRACERS_useGMRedi = /* apply GM-Redi */
(PID.TID 0000.0001)                   T
(PID.TID 0000.0001)     ;
(PID.TID 0000.0001) PTRACERS_useDWNSLP = /* apply DOWN-SLOPE Flow */
(PID.TID 0000.0001)                   F
(PID.TID 0000.0001)     ;
(PID.TID 0000.0001) PTRACERS_useKPP = /* apply KPP scheme */
(PID.TID 0000.0001)                   T
(PID.TID 0000.0001)     ;
(PID.TID 0000.0001) PTRACERS_ref = /* Reference vertical profile */
(PID.TID 0000.0001)    23 @  0.000000000000000E+00              /* K =  1: 23 */
(PID.TID 0000.0001)     ;
(PID.TID 0000.0001) PTRACERS_EvPrRn =/* tracer conc. in Evap. & Rain */
(PID.TID 0000.0001)                 1.234567000000000E+05
(PID.TID 0000.0001)     ;
(PID.TID 0000.0001)  -----------------------------------
(PID.TID 0000.0001)  tracer number :  230
(PID.TID 0000.0001) PTRACERS_names = /* Tracer short name */
(PID.TID 0000.0001)               'Chl21'
(PID.TID 0000.0001)     ;
(PID.TID 0000.0001) PTRACERS_long_names = /* Tracer long name */
(PID.TID 0000.0001)               ''
(PID.TID 0000.0001)     ;
(PID.TID 0000.0001) PTRACERS_ioLabel = /* tracer IO Label */
(PID.TID 0000.0001)               '2A'
(PID.TID 0000.0001)     ;
(PID.TID 0000.0001) PTRACERS_advScheme = /* Advection Scheme */
(PID.TID 0000.0001)                      33
(PID.TID 0000.0001)     ;
(PID.TID 0000.0001) PTRACERS_SOM_Advection = /* tracer uses SOM advection scheme */
(PID.TID 0000.0001)                   F
(PID.TID 0000.0001)     ;
(PID.TID 0000.0001) PTRACERS_ImplVertAdv = /* implicit vert. advection flag */
(PID.TID 0000.0001)                   F
(PID.TID 0000.0001)     ;
(PID.TID 0000.0001) PTRACERS_diffKh = /* Laplacian Diffusivity */
(PID.TID 0000.0001)                 0.000000000000000E+00
(PID.TID 0000.0001)     ;
(PID.TID 0000.0001) PTRACERS_diffK4 = /* Biharmonic Diffusivity */
(PID.TID 0000.0001)                 0.000000000000000E+00
(PID.TID 0000.0001)     ;
(PID.TID 0000.0001) PTRACERS_diffKrNr = /* Vertical Diffusivity */
(PID.TID 0000.0001)    23 @  1.000000000000000E-05              /* K =  1: 23 */
(PID.TID 0000.0001)     ;
(PID.TID 0000.0001) PTRACERS_useGMRedi = /* apply GM-Redi */
(PID.TID 0000.0001)                   T
(PID.TID 0000.0001)     ;
(PID.TID 0000.0001) PTRACERS_useDWNSLP = /* apply DOWN-SLOPE Flow */
(PID.TID 0000.0001)                   F
(PID.TID 0000.0001)     ;
(PID.TID 0000.0001) PTRACERS_useKPP = /* apply KPP scheme */
(PID.TID 0000.0001)                   T
(PID.TID 0000.0001)     ;
(PID.TID 0000.0001) PTRACERS_ref = /* Reference vertical profile */
(PID.TID 0000.0001)    23 @  0.000000000000000E+00              /* K =  1: 23 */
(PID.TID 0000.0001)     ;
(PID.TID 0000.0001) PTRACERS_EvPrRn =/* tracer conc. in Evap. & Rain */
(PID.TID 0000.0001)                 1.234567000000000E+05
(PID.TID 0000.0001)     ;
(PID.TID 0000.0001)  -----------------------------------
(PID.TID 0000.0001)  tracer number :  231
(PID.TID 0000.0001) PTRACERS_names = /* Tracer short name */
(PID.TID 0000.0001)               'Chl22'
(PID.TID 0000.0001)     ;
(PID.TID 0000.0001) PTRACERS_long_names = /* Tracer long name */
(PID.TID 0000.0001)               ''
(PID.TID 0000.0001)     ;
(PID.TID 0000.0001) PTRACERS_ioLabel = /* tracer IO Label */
(PID.TID 0000.0001)               '2B'
(PID.TID 0000.0001)     ;
(PID.TID 0000.0001) PTRACERS_advScheme = /* Advection Scheme */
(PID.TID 0000.0001)                      33
(PID.TID 0000.0001)     ;
(PID.TID 0000.0001) PTRACERS_SOM_Advection = /* tracer uses SOM advection scheme */
(PID.TID 0000.0001)                   F
(PID.TID 0000.0001)     ;
(PID.TID 0000.0001) PTRACERS_ImplVertAdv = /* implicit vert. advection flag */
(PID.TID 0000.0001)                   F
(PID.TID 0000.0001)     ;
(PID.TID 0000.0001) PTRACERS_diffKh = /* Laplacian Diffusivity */
(PID.TID 0000.0001)                 0.000000000000000E+00
(PID.TID 0000.0001)     ;
(PID.TID 0000.0001) PTRACERS_diffK4 = /* Biharmonic Diffusivity */
(PID.TID 0000.0001)                 0.000000000000000E+00
(PID.TID 0000.0001)     ;
(PID.TID 0000.0001) PTRACERS_diffKrNr = /* Vertical Diffusivity */
(PID.TID 0000.0001)    23 @  1.000000000000000E-05              /* K =  1: 23 */
(PID.TID 0000.0001)     ;
(PID.TID 0000.0001) PTRACERS_useGMRedi = /* apply GM-Redi */
(PID.TID 0000.0001)                   T
(PID.TID 0000.0001)     ;
(PID.TID 0000.0001) PTRACERS_useDWNSLP = /* apply DOWN-SLOPE Flow */
(PID.TID 0000.0001)                   F
(PID.TID 0000.0001)     ;
(PID.TID 0000.0001) PTRACERS_useKPP = /* apply KPP scheme */
(PID.TID 0000.0001)                   T
(PID.TID 0000.0001)     ;
(PID.TID 0000.0001) PTRACERS_ref = /* Reference vertical profile */
(PID.TID 0000.0001)    23 @  0.000000000000000E+00              /* K =  1: 23 */
(PID.TID 0000.0001)     ;
(PID.TID 0000.0001) PTRACERS_EvPrRn =/* tracer conc. in Evap. & Rain */
(PID.TID 0000.0001)                 1.234567000000000E+05
(PID.TID 0000.0001)     ;
(PID.TID 0000.0001)  -----------------------------------
(PID.TID 0000.0001)  tracer number :  232
(PID.TID 0000.0001) PTRACERS_names = /* Tracer short name */
(PID.TID 0000.0001)               'Chl23'
(PID.TID 0000.0001)     ;
(PID.TID 0000.0001) PTRACERS_long_names = /* Tracer long name */
(PID.TID 0000.0001)               ''
(PID.TID 0000.0001)     ;
(PID.TID 0000.0001) PTRACERS_ioLabel = /* tracer IO Label */
(PID.TID 0000.0001)               '2C'
(PID.TID 0000.0001)     ;
(PID.TID 0000.0001) PTRACERS_advScheme = /* Advection Scheme */
(PID.TID 0000.0001)                      33
(PID.TID 0000.0001)     ;
(PID.TID 0000.0001) PTRACERS_SOM_Advection = /* tracer uses SOM advection scheme */
(PID.TID 0000.0001)                   F
(PID.TID 0000.0001)     ;
(PID.TID 0000.0001) PTRACERS_ImplVertAdv = /* implicit vert. advection flag */
(PID.TID 0000.0001)                   F
(PID.TID 0000.0001)     ;
(PID.TID 0000.0001) PTRACERS_diffKh = /* Laplacian Diffusivity */
(PID.TID 0000.0001)                 0.000000000000000E+00
(PID.TID 0000.0001)     ;
(PID.TID 0000.0001) PTRACERS_diffK4 = /* Biharmonic Diffusivity */
(PID.TID 0000.0001)                 0.000000000000000E+00
(PID.TID 0000.0001)     ;
(PID.TID 0000.0001) PTRACERS_diffKrNr = /* Vertical Diffusivity */
(PID.TID 0000.0001)    23 @  1.000000000000000E-05              /* K =  1: 23 */
(PID.TID 0000.0001)     ;
(PID.TID 0000.0001) PTRACERS_useGMRedi = /* apply GM-Redi */
(PID.TID 0000.0001)                   T
(PID.TID 0000.0001)     ;
(PID.TID 0000.0001) PTRACERS_useDWNSLP = /* apply DOWN-SLOPE Flow */
(PID.TID 0000.0001)                   F
(PID.TID 0000.0001)     ;
(PID.TID 0000.0001) PTRACERS_useKPP = /* apply KPP scheme */
(PID.TID 0000.0001)                   T
(PID.TID 0000.0001)     ;
(PID.TID 0000.0001) PTRACERS_ref = /* Reference vertical profile */
(PID.TID 0000.0001)    23 @  0.000000000000000E+00              /* K =  1: 23 */
(PID.TID 0000.0001)     ;
(PID.TID 0000.0001) PTRACERS_EvPrRn =/* tracer conc. in Evap. & Rain */
(PID.TID 0000.0001)                 1.234567000000000E+05
(PID.TID 0000.0001)     ;
(PID.TID 0000.0001)  -----------------------------------
(PID.TID 0000.0001)  tracer number :  233
(PID.TID 0000.0001) PTRACERS_names = /* Tracer short name */
(PID.TID 0000.0001)               'Chl24'
(PID.TID 0000.0001)     ;
(PID.TID 0000.0001) PTRACERS_long_names = /* Tracer long name */
(PID.TID 0000.0001)               ''
(PID.TID 0000.0001)     ;
(PID.TID 0000.0001) PTRACERS_ioLabel = /* tracer IO Label */
(PID.TID 0000.0001)               '2D'
(PID.TID 0000.0001)     ;
(PID.TID 0000.0001) PTRACERS_advScheme = /* Advection Scheme */
(PID.TID 0000.0001)                      33
(PID.TID 0000.0001)     ;
(PID.TID 0000.0001) PTRACERS_SOM_Advection = /* tracer uses SOM advection scheme */
(PID.TID 0000.0001)                   F
(PID.TID 0000.0001)     ;
(PID.TID 0000.0001) PTRACERS_ImplVertAdv = /* implicit vert. advection flag */
(PID.TID 0000.0001)                   F
(PID.TID 0000.0001)     ;
(PID.TID 0000.0001) PTRACERS_diffKh = /* Laplacian Diffusivity */
(PID.TID 0000.0001)                 0.000000000000000E+00
(PID.TID 0000.0001)     ;
(PID.TID 0000.0001) PTRACERS_diffK4 = /* Biharmonic Diffusivity */
(PID.TID 0000.0001)                 0.000000000000000E+00
(PID.TID 0000.0001)     ;
(PID.TID 0000.0001) PTRACERS_diffKrNr = /* Vertical Diffusivity */
(PID.TID 0000.0001)    23 @  1.000000000000000E-05              /* K =  1: 23 */
(PID.TID 0000.0001)     ;
(PID.TID 0000.0001) PTRACERS_useGMRedi = /* apply GM-Redi */
(PID.TID 0000.0001)                   T
(PID.TID 0000.0001)     ;
(PID.TID 0000.0001) PTRACERS_useDWNSLP = /* apply DOWN-SLOPE Flow */
(PID.TID 0000.0001)                   F
(PID.TID 0000.0001)     ;
(PID.TID 0000.0001) PTRACERS_useKPP = /* apply KPP scheme */
(PID.TID 0000.0001)                   T
(PID.TID 0000.0001)     ;
(PID.TID 0000.0001) PTRACERS_ref = /* Reference vertical profile */
(PID.TID 0000.0001)    23 @  0.000000000000000E+00              /* K =  1: 23 */
(PID.TID 0000.0001)     ;
(PID.TID 0000.0001) PTRACERS_EvPrRn =/* tracer conc. in Evap. & Rain */
(PID.TID 0000.0001)                 1.234567000000000E+05
(PID.TID 0000.0001)     ;
(PID.TID 0000.0001)  -----------------------------------
(PID.TID 0000.0001) GCHEM_CHECK: #define ALLOW_GCHEM
(PID.TID 0000.0001) GUD_CHECK: #define ALLOW_GUD
(PID.TID 0000.0001) GUD_CHECK: iPtr gud   PTRACERS_names
(PID.TID 0000.0001) GUD_CHECK:    1 DIC      DIC
(PID.TID 0000.0001) GUD_CHECK:    2 NH4      NH4
(PID.TID 0000.0001) GUD_CHECK:    3 NO2      NO2
(PID.TID 0000.0001) GUD_CHECK:    4 NO3      NO3
(PID.TID 0000.0001) GUD_CHECK:    5 PO4      PO4
(PID.TID 0000.0001) GUD_CHECK:    6 SiO2     SiO2
(PID.TID 0000.0001) GUD_CHECK:    7 FeT      FeT
(PID.TID 0000.0001) GUD_CHECK:    8 DOC      DOC
(PID.TID 0000.0001) GUD_CHECK:    9 DON      DON
(PID.TID 0000.0001) GUD_CHECK:   10 DOP      DOP
(PID.TID 0000.0001) GUD_CHECK:   11 DOFe     DOFe
(PID.TID 0000.0001) GUD_CHECK:   12 POC      POC
(PID.TID 0000.0001) GUD_CHECK:   13 PON      PON
(PID.TID 0000.0001) GUD_CHECK:   14 POP      POP
(PID.TID 0000.0001) GUD_CHECK:   15 POSi     POSi
(PID.TID 0000.0001) GUD_CHECK:   16 POFe     POFe
(PID.TID 0000.0001) GUD_CHECK:   17 PIC      PIC
(PID.TID 0000.0001) GUD_CHECK:   18 ALK      ALK
(PID.TID 0000.0001) GUD_CHECK:   19 O2       O2
(PID.TID 0000.0001) GUD_CHECK:   20 c    (1) c01
(PID.TID 0000.0001) GUD_CHECK:   21 c    (2) c02
(PID.TID 0000.0001) GUD_CHECK:   22 c    (3) c03
(PID.TID 0000.0001) GUD_CHECK:   23 c    (4) c04
(PID.TID 0000.0001) GUD_CHECK:   24 c    (5) c05
(PID.TID 0000.0001) GUD_CHECK:   25 c    (6) c06
(PID.TID 0000.0001) GUD_CHECK:   26 c    (7) c07
(PID.TID 0000.0001) GUD_CHECK:   27 c    (8) c08
(PID.TID 0000.0001) GUD_CHECK:   28 c    (9) c09
(PID.TID 0000.0001) GUD_CHECK:   29 c    (*) c10
(PID.TID 0000.0001) GUD_CHECK:   30 c    (*) c11
(PID.TID 0000.0001) GUD_CHECK:   31 c    (*) c12
(PID.TID 0000.0001) GUD_CHECK:   32 c    (*) c13
(PID.TID 0000.0001) GUD_CHECK:   33 c    (*) c14
(PID.TID 0000.0001) GUD_CHECK:   34 c    (*) c15
(PID.TID 0000.0001) GUD_CHECK:   35 c    (*) c16
(PID.TID 0000.0001) GUD_CHECK:   36 c    (*) c17
(PID.TID 0000.0001) GUD_CHECK:   37 c    (*) c18
(PID.TID 0000.0001) GUD_CHECK:   38 c    (*) c19
(PID.TID 0000.0001) GUD_CHECK:   39 c    (*) c20
(PID.TID 0000.0001) GUD_CHECK:   40 c    (*) c21
(PID.TID 0000.0001) GUD_CHECK:   41 c    (*) c22
(PID.TID 0000.0001) GUD_CHECK:   42 c    (*) c23
(PID.TID 0000.0001) GUD_CHECK:   43 c    (*) c24
(PID.TID 0000.0001) GUD_CHECK:   44 c    (*) c25
(PID.TID 0000.0001) GUD_CHECK:   45 c    (*) c26
(PID.TID 0000.0001) GUD_CHECK:   46 c    (*) c27
(PID.TID 0000.0001) GUD_CHECK:   47 c    (*) c28
(PID.TID 0000.0001) GUD_CHECK:   48 c    (*) c29
(PID.TID 0000.0001) GUD_CHECK:   49 c    (*) c30
(PID.TID 0000.0001) GUD_CHECK:   50 c    (*) c31
(PID.TID 0000.0001) GUD_CHECK:   51 c    (*) c32
(PID.TID 0000.0001) GUD_CHECK:   52 c    (*) c33
(PID.TID 0000.0001) GUD_CHECK:   53 c    (*) c34
(PID.TID 0000.0001) GUD_CHECK:   54 c    (*) c35
(PID.TID 0000.0001) GUD_CHECK:   55 c    (*) c36
(PID.TID 0000.0001) GUD_CHECK:   56 c    (*) c37
(PID.TID 0000.0001) GUD_CHECK:   57 c    (*) c38
(PID.TID 0000.0001) GUD_CHECK:   58 n    (1) n01
(PID.TID 0000.0001) GUD_CHECK:   59 n    (2) n02
(PID.TID 0000.0001) GUD_CHECK:   60 n    (3) n03
(PID.TID 0000.0001) GUD_CHECK:   61 n    (4) n04
(PID.TID 0000.0001) GUD_CHECK:   62 n    (5) n05
(PID.TID 0000.0001) GUD_CHECK:   63 n    (6) n06
(PID.TID 0000.0001) GUD_CHECK:   64 n    (7) n07
(PID.TID 0000.0001) GUD_CHECK:   65 n    (8) n08
(PID.TID 0000.0001) GUD_CHECK:   66 n    (9) n09
(PID.TID 0000.0001) GUD_CHECK:   67 n    (*) n10
(PID.TID 0000.0001) GUD_CHECK:   68 n    (*) n11
(PID.TID 0000.0001) GUD_CHECK:   69 n    (*) n12
(PID.TID 0000.0001) GUD_CHECK:   70 n    (*) n13
(PID.TID 0000.0001) GUD_CHECK:   71 n    (*) n14
(PID.TID 0000.0001) GUD_CHECK:   72 n    (*) n15
(PID.TID 0000.0001) GUD_CHECK:   73 n    (*) n16
(PID.TID 0000.0001) GUD_CHECK:   74 n    (*) n17
(PID.TID 0000.0001) GUD_CHECK:   75 n    (*) n18
(PID.TID 0000.0001) GUD_CHECK:   76 n    (*) n19
(PID.TID 0000.0001) GUD_CHECK:   77 n    (*) n20
(PID.TID 0000.0001) GUD_CHECK:   78 n    (*) n21
(PID.TID 0000.0001) GUD_CHECK:   79 n    (*) n22
(PID.TID 0000.0001) GUD_CHECK:   80 n    (*) n23
(PID.TID 0000.0001) GUD_CHECK:   81 n    (*) n24
(PID.TID 0000.0001) GUD_CHECK:   82 n    (*) n25
(PID.TID 0000.0001) GUD_CHECK:   83 n    (*) n26
(PID.TID 0000.0001) GUD_CHECK:   84 n    (*) n27
(PID.TID 0000.0001) GUD_CHECK:   85 n    (*) n28
(PID.TID 0000.0001) GUD_CHECK:   86 n    (*) n29
(PID.TID 0000.0001) GUD_CHECK:   87 n    (*) n30
(PID.TID 0000.0001) GUD_CHECK:   88 n    (*) n31
(PID.TID 0000.0001) GUD_CHECK:   89 n    (*) n32
(PID.TID 0000.0001) GUD_CHECK:   90 n    (*) n33
(PID.TID 0000.0001) GUD_CHECK:   91 n    (*) n34
(PID.TID 0000.0001) GUD_CHECK:   92 n    (*) n35
(PID.TID 0000.0001) GUD_CHECK:   93 n    (*) n36
(PID.TID 0000.0001) GUD_CHECK:   94 n    (*) n37
(PID.TID 0000.0001) GUD_CHECK:   95 n    (*) n38
(PID.TID 0000.0001) GUD_CHECK:   96 p    (1) p01
(PID.TID 0000.0001) GUD_CHECK:   97 p    (2) p02
(PID.TID 0000.0001) GUD_CHECK:   98 p    (3) p03
(PID.TID 0000.0001) GUD_CHECK:   99 p    (4) p04
(PID.TID 0000.0001) GUD_CHECK:  100 p    (5) p05
(PID.TID 0000.0001) GUD_CHECK:  101 p    (6) p06
(PID.TID 0000.0001) GUD_CHECK:  102 p    (7) p07
(PID.TID 0000.0001) GUD_CHECK:  103 p    (8) p08
(PID.TID 0000.0001) GUD_CHECK:  104 p    (9) p09
(PID.TID 0000.0001) GUD_CHECK:  105 p    (*) p10
(PID.TID 0000.0001) GUD_CHECK:  106 p    (*) p11
(PID.TID 0000.0001) GUD_CHECK:  107 p    (*) p12
(PID.TID 0000.0001) GUD_CHECK:  108 p    (*) p13
(PID.TID 0000.0001) GUD_CHECK:  109 p    (*) p14
(PID.TID 0000.0001) GUD_CHECK:  110 p    (*) p15
(PID.TID 0000.0001) GUD_CHECK:  111 p    (*) p16
(PID.TID 0000.0001) GUD_CHECK:  112 p    (*) p17
(PID.TID 0000.0001) GUD_CHECK:  113 p    (*) p18
(PID.TID 0000.0001) GUD_CHECK:  114 p    (*) p19
(PID.TID 0000.0001) GUD_CHECK:  115 p    (*) p20
(PID.TID 0000.0001) GUD_CHECK:  116 p    (*) p21
(PID.TID 0000.0001) GUD_CHECK:  117 p    (*) p22
(PID.TID 0000.0001) GUD_CHECK:  118 p    (*) p23
(PID.TID 0000.0001) GUD_CHECK:  119 p    (*) p24
(PID.TID 0000.0001) GUD_CHECK:  120 p    (*) p25
(PID.TID 0000.0001) GUD_CHECK:  121 p    (*) p26
(PID.TID 0000.0001) GUD_CHECK:  122 p    (*) p27
(PID.TID 0000.0001) GUD_CHECK:  123 p    (*) p28
(PID.TID 0000.0001) GUD_CHECK:  124 p    (*) p29
(PID.TID 0000.0001) GUD_CHECK:  125 p    (*) p30
(PID.TID 0000.0001) GUD_CHECK:  126 p    (*) p31
(PID.TID 0000.0001) GUD_CHECK:  127 p    (*) p32
(PID.TID 0000.0001) GUD_CHECK:  128 p    (*) p33
(PID.TID 0000.0001) GUD_CHECK:  129 p    (*) p34
(PID.TID 0000.0001) GUD_CHECK:  130 p    (*) p35
(PID.TID 0000.0001) GUD_CHECK:  131 p    (*) p36
(PID.TID 0000.0001) GUD_CHECK:  132 p    (*) p37
(PID.TID 0000.0001) GUD_CHECK:  133 p    (*) p38
(PID.TID 0000.0001) GUD_CHECK:  134 si   (1) si01
(PID.TID 0000.0001) GUD_CHECK:  135 si   (2) si02
(PID.TID 0000.0001) GUD_CHECK:  136 si   (3) si03
(PID.TID 0000.0001) GUD_CHECK:  137 si   (4) si04
(PID.TID 0000.0001) GUD_CHECK:  138 si   (5) si05
(PID.TID 0000.0001) GUD_CHECK:  139 si   (6) si06
(PID.TID 0000.0001) GUD_CHECK:  140 si   (7) si07
(PID.TID 0000.0001) GUD_CHECK:  141 si   (8) si08
(PID.TID 0000.0001) GUD_CHECK:  142 si   (9) si09
(PID.TID 0000.0001) GUD_CHECK:  143 si   (*) si10
(PID.TID 0000.0001) GUD_CHECK:  144 si   (*) si11
(PID.TID 0000.0001) GUD_CHECK:  145 si   (*) si12
(PID.TID 0000.0001) GUD_CHECK:  146 si   (*) si13
(PID.TID 0000.0001) GUD_CHECK:  147 si   (*) si14
(PID.TID 0000.0001) GUD_CHECK:  148 si   (*) si15
(PID.TID 0000.0001) GUD_CHECK:  149 si   (*) si16
(PID.TID 0000.0001) GUD_CHECK:  150 si   (*) si17
(PID.TID 0000.0001) GUD_CHECK:  151 si   (*) si18
(PID.TID 0000.0001) GUD_CHECK:  152 si   (*) si19
(PID.TID 0000.0001) GUD_CHECK:  153 si   (*) si20
(PID.TID 0000.0001) GUD_CHECK:  154 si   (*) si21
(PID.TID 0000.0001) GUD_CHECK:  155 si   (*) si22
(PID.TID 0000.0001) GUD_CHECK:  156 si   (*) si23
(PID.TID 0000.0001) GUD_CHECK:  157 si   (*) si24
(PID.TID 0000.0001) GUD_CHECK:  158 si   (*) si25
(PID.TID 0000.0001) GUD_CHECK:  159 si   (*) si26
(PID.TID 0000.0001) GUD_CHECK:  160 si   (*) si27
(PID.TID 0000.0001) GUD_CHECK:  161 si   (*) si28
(PID.TID 0000.0001) GUD_CHECK:  162 si   (*) si29
(PID.TID 0000.0001) GUD_CHECK:  163 si   (*) si30
(PID.TID 0000.0001) GUD_CHECK:  164 si   (*) si31
(PID.TID 0000.0001) GUD_CHECK:  165 si   (*) si32
(PID.TID 0000.0001) GUD_CHECK:  166 si   (*) si33
(PID.TID 0000.0001) GUD_CHECK:  167 si   (*) si34
(PID.TID 0000.0001) GUD_CHECK:  168 si   (*) si35
(PID.TID 0000.0001) GUD_CHECK:  169 si   (*) si36
(PID.TID 0000.0001) GUD_CHECK:  170 si   (*) si37
(PID.TID 0000.0001) GUD_CHECK:  171 si   (*) si38
(PID.TID 0000.0001) GUD_CHECK:  172 fe   (1) fe01
(PID.TID 0000.0001) GUD_CHECK:  173 fe   (2) fe02
(PID.TID 0000.0001) GUD_CHECK:  174 fe   (3) fe03
(PID.TID 0000.0001) GUD_CHECK:  175 fe   (4) fe04
(PID.TID 0000.0001) GUD_CHECK:  176 fe   (5) fe05
(PID.TID 0000.0001) GUD_CHECK:  177 fe   (6) fe06
(PID.TID 0000.0001) GUD_CHECK:  178 fe   (7) fe07
(PID.TID 0000.0001) GUD_CHECK:  179 fe   (8) fe08
(PID.TID 0000.0001) GUD_CHECK:  180 fe   (9) fe09
(PID.TID 0000.0001) GUD_CHECK:  181 fe   (*) fe10
(PID.TID 0000.0001) GUD_CHECK:  182 fe   (*) fe11
(PID.TID 0000.0001) GUD_CHECK:  183 fe   (*) fe12
(PID.TID 0000.0001) GUD_CHECK:  184 fe   (*) fe13
(PID.TID 0000.0001) GUD_CHECK:  185 fe   (*) fe14
(PID.TID 0000.0001) GUD_CHECK:  186 fe   (*) fe15
(PID.TID 0000.0001) GUD_CHECK:  187 fe   (*) fe16
(PID.TID 0000.0001) GUD_CHECK:  188 fe   (*) fe17
(PID.TID 0000.0001) GUD_CHECK:  189 fe   (*) fe18
(PID.TID 0000.0001) GUD_CHECK:  190 fe   (*) fe19
(PID.TID 0000.0001) GUD_CHECK:  191 fe   (*) fe20
(PID.TID 0000.0001) GUD_CHECK:  192 fe   (*) fe21
(PID.TID 0000.0001) GUD_CHECK:  193 fe   (*) fe22
(PID.TID 0000.0001) GUD_CHECK:  194 fe   (*) fe23
(PID.TID 0000.0001) GUD_CHECK:  195 fe   (*) fe24
(PID.TID 0000.0001) GUD_CHECK:  196 fe   (*) fe25
(PID.TID 0000.0001) GUD_CHECK:  197 fe   (*) fe26
(PID.TID 0000.0001) GUD_CHECK:  198 fe   (*) fe27
(PID.TID 0000.0001) GUD_CHECK:  199 fe   (*) fe28
(PID.TID 0000.0001) GUD_CHECK:  200 fe   (*) fe29
(PID.TID 0000.0001) GUD_CHECK:  201 fe   (*) fe30
(PID.TID 0000.0001) GUD_CHECK:  202 fe   (*) fe31
(PID.TID 0000.0001) GUD_CHECK:  203 fe   (*) fe32
(PID.TID 0000.0001) GUD_CHECK:  204 fe   (*) fe33
(PID.TID 0000.0001) GUD_CHECK:  205 fe   (*) fe34
(PID.TID 0000.0001) GUD_CHECK:  206 fe   (*) fe35
(PID.TID 0000.0001) GUD_CHECK:  207 fe   (*) fe36
(PID.TID 0000.0001) GUD_CHECK:  208 fe   (*) fe37
(PID.TID 0000.0001) GUD_CHECK:  209 fe   (*) fe38
(PID.TID 0000.0001) GUD_CHECK:  210 Chl  (1) Chl01
(PID.TID 0000.0001) GUD_CHECK:  211 Chl  (2) Chl02
(PID.TID 0000.0001) GUD_CHECK:  212 Chl  (3) Chl03
(PID.TID 0000.0001) GUD_CHECK:  213 Chl  (4) Chl04
(PID.TID 0000.0001) GUD_CHECK:  214 Chl  (5) Chl05
(PID.TID 0000.0001) GUD_CHECK:  215 Chl  (6) Chl06
(PID.TID 0000.0001) GUD_CHECK:  216 Chl  (7) Chl07
(PID.TID 0000.0001) GUD_CHECK:  217 Chl  (8) Chl08
(PID.TID 0000.0001) GUD_CHECK:  218 Chl  (9) Chl09
(PID.TID 0000.0001) GUD_CHECK:  219 Chl  (*) Chl10
(PID.TID 0000.0001) GUD_CHECK:  220 Chl  (*) Chl11
(PID.TID 0000.0001) GUD_CHECK:  221 Chl  (*) Chl12
(PID.TID 0000.0001) GUD_CHECK:  222 Chl  (*) Chl13
(PID.TID 0000.0001) GUD_CHECK:  223 Chl  (*) Chl14
(PID.TID 0000.0001) GUD_CHECK:  224 Chl  (*) Chl15
(PID.TID 0000.0001) GUD_CHECK:  225 Chl  (*) Chl16
(PID.TID 0000.0001) GUD_CHECK:  226 Chl  (*) Chl17
(PID.TID 0000.0001) GUD_CHECK:  227 Chl  (*) Chl18
(PID.TID 0000.0001) GUD_CHECK:  228 Chl  (*) Chl19
(PID.TID 0000.0001) GUD_CHECK:  229 Chl  (*) Chl20
(PID.TID 0000.0001) GUD_CHECK:  230 Chl  (*) Chl21
(PID.TID 0000.0001) GUD_CHECK:  231 Chl  (*) Chl22
(PID.TID 0000.0001) GUD_CHECK:  232 Chl  (*) Chl23
(PID.TID 0000.0001) GUD_CHECK:  233 Chl  (*) Chl24
(PID.TID 0000.0001) OFFLINE_CHECK: #define OFFLINE
(PID.TID 0000.0001) offlineLoadGMRedi= /* load (not compute) GMRedi tensor */
(PID.TID 0000.0001)                   T
(PID.TID 0000.0001)     ;
(PID.TID 0000.0001) offlineLoadKPP= /* load (not compute) KPP mixing coeff */
(PID.TID 0000.0001)                   T
(PID.TID 0000.0001)     ;
(PID.TID 0000.0001) offlineLoadConvec= /* load (not compute) Convect Mix */
(PID.TID 0000.0001)                   F
(PID.TID 0000.0001)     ;
(PID.TID 0000.0001) offlineIter0 = /* initial offline field timestep */
(PID.TID 0000.0001)                   78912
(PID.TID 0000.0001)     ;
(PID.TID 0000.0001) offlineOffsetIter= /* iteration number offset */
(PID.TID 0000.0001)                       0
(PID.TID 0000.0001)     ;
(PID.TID 0000.0001) offlineLoadPrec = /* precision (32,64) of offline files */
(PID.TID 0000.0001)                      32
(PID.TID 0000.0001)     ;
(PID.TID 0000.0001) deltaToffline = /* time-step to load offline files */
(PID.TID 0000.0001)                 3.600000000000000E+03
(PID.TID 0000.0001)     ;
(PID.TID 0000.0001) offlineForcingPeriod= /* time interval between reccords [s] */
(PID.TID 0000.0001)                 8.640000000000000E+04
(PID.TID 0000.0001)     ;
(PID.TID 0000.0001) offlineForcingCycle = /* length of 1 cycle [s] */
(PID.TID 0000.0001)                 3.110400000000000E+07
(PID.TID 0000.0001)     ;
(PID.TID 0000.0001) UvelFile = /* file name of loaded uVel field */
(PID.TID 0000.0001)               '/nobackup1/stephdut/ECCO_Iter3.73daily/DDuvel/DDuvel'
(PID.TID 0000.0001)     ;
(PID.TID 0000.0001) OFFLINE_CHECK: done
(PID.TID 0000.0001) GAD_CHECK: #define ALLOW_GENERIC_ADVDIFF
(PID.TID 0000.0001) // =======================================================
(PID.TID 0000.0001) // Check Model config. (CONFIG_CHECK):
(PID.TID 0000.0001) // CONFIG_CHECK : Normal End
(PID.TID 0000.0001) // =======================================================
(PID.TID 0000.0001) 
(PID.TID 0000.0001) Start initial hydrostatic pressure computation
(PID.TID 0000.0001) Pressure is predetermined for buoyancyRelation OCEANIC
(PID.TID 0000.0001) 
(PID.TID 0000.0001)  write diagnostics summary to file ioUnit:      6
Iter.Nb:         0 ; Time(s):  0.0000000000000E+00
------------------------------------------------------------------------
2D/3D diagnostics: Number of lists:     1
------------------------------------------------------------------------
listId=    1 ; file name: gud
 nFlds, nActive,       freq     &     phase        , nLev               
  237  |  237  |   2592000.000000         0.000000 |  23
 levels:   1   2   3   4   5   6   7   8   9  10  11  12  13  14  15  16  17  18  19  20  21  22  23
 diag# | name   |   ipt  |  iMate | kLev|   count |   mate.C|           
   179 |TRAC01  |      1 |      0 |  23 |       0 |
   192 |TRAC02  |     24 |      0 |  23 |       0 |
   205 |TRAC03  |     47 |      0 |  23 |       0 |
   218 |TRAC04  |     70 |      0 |  23 |       0 |
   231 |TRAC05  |     93 |      0 |  23 |       0 |
   244 |TRAC06  |    116 |      0 |  23 |       0 |
   257 |TRAC07  |    139 |      0 |  23 |       0 |
   270 |TRAC08  |    162 |      0 |  23 |       0 |
   283 |TRAC09  |    185 |      0 |  23 |       0 |
   296 |TRAC10  |    208 |      0 |  23 |       0 |
   309 |TRAC11  |    231 |      0 |  23 |       0 |
   322 |TRAC12  |    254 |      0 |  23 |       0 |
   335 |TRAC13  |    277 |      0 |  23 |       0 |
   348 |TRAC14  |    300 |      0 |  23 |       0 |
   361 |TRAC15  |    323 |      0 |  23 |       0 |
   374 |TRAC16  |    346 |      0 |  23 |       0 |
   387 |TRAC17  |    369 |      0 |  23 |       0 |
   400 |TRAC18  |    392 |      0 |  23 |       0 |
   413 |TRAC19  |    415 |      0 |  23 |       0 |
   426 |TRAC20  |    438 |      0 |  23 |       0 |
   439 |TRAC21  |    461 |      0 |  23 |       0 |
   452 |TRAC22  |    484 |      0 |  23 |       0 |
   465 |TRAC23  |    507 |      0 |  23 |       0 |
   478 |TRAC24  |    530 |      0 |  23 |       0 |
   491 |TRAC25  |    553 |      0 |  23 |       0 |
   504 |TRAC26  |    576 |      0 |  23 |       0 |
   517 |TRAC27  |    599 |      0 |  23 |       0 |
   530 |TRAC28  |    622 |      0 |  23 |       0 |
   543 |TRAC29  |    645 |      0 |  23 |       0 |
   556 |TRAC30  |    668 |      0 |  23 |       0 |
   569 |TRAC31  |    691 |      0 |  23 |       0 |
   582 |TRAC32  |    714 |      0 |  23 |       0 |
   595 |TRAC33  |    737 |      0 |  23 |       0 |
   608 |TRAC34  |    760 |      0 |  23 |       0 |
   621 |TRAC35  |    783 |      0 |  23 |       0 |
   634 |TRAC36  |    806 |      0 |  23 |       0 |
   647 |TRAC37  |    829 |      0 |  23 |       0 |
   660 |TRAC38  |    852 |      0 |  23 |       0 |
   673 |TRAC39  |    875 |      0 |  23 |       0 |
   686 |TRAC40  |    898 |      0 |  23 |       0 |
   699 |TRAC41  |    921 |      0 |  23 |       0 |
   712 |TRAC42  |    944 |      0 |  23 |       0 |
   725 |TRAC43  |    967 |      0 |  23 |       0 |
   738 |TRAC44  |    990 |      0 |  23 |       0 |
   751 |TRAC45  |   1013 |      0 |  23 |       0 |
   764 |TRAC46  |   1036 |      0 |  23 |       0 |
   777 |TRAC47  |   1059 |      0 |  23 |       0 |
   790 |TRAC48  |   1082 |      0 |  23 |       0 |
   803 |TRAC49  |   1105 |      0 |  23 |       0 |
   816 |TRAC50  |   1128 |      0 |  23 |       0 |
   829 |TRAC51  |   1151 |      0 |  23 |       0 |
   842 |TRAC52  |   1174 |      0 |  23 |       0 |
   855 |TRAC53  |   1197 |      0 |  23 |       0 |
   868 |TRAC54  |   1220 |      0 |  23 |       0 |
   881 |TRAC55  |   1243 |      0 |  23 |       0 |
   894 |TRAC56  |   1266 |      0 |  23 |       0 |
   907 |TRAC57  |   1289 |      0 |  23 |       0 |
   920 |TRAC58  |   1312 |      0 |  23 |       0 |
   933 |TRAC59  |   1335 |      0 |  23 |       0 |
   946 |TRAC60  |   1358 |      0 |  23 |       0 |
   959 |TRAC61  |   1381 |      0 |  23 |       0 |
   972 |TRAC62  |   1404 |      0 |  23 |       0 |
   985 |TRAC63  |   1427 |      0 |  23 |       0 |
   998 |TRAC64  |   1450 |      0 |  23 |       0 |
  1011 |TRAC65  |   1473 |      0 |  23 |       0 |
  1024 |TRAC66  |   1496 |      0 |  23 |       0 |
  1037 |TRAC67  |   1519 |      0 |  23 |       0 |
  1050 |TRAC68  |   1542 |      0 |  23 |       0 |
  1063 |TRAC69  |   1565 |      0 |  23 |       0 |
  1076 |TRAC70  |   1588 |      0 |  23 |       0 |
  1089 |TRAC71  |   1611 |      0 |  23 |       0 |
  1102 |TRAC72  |   1634 |      0 |  23 |       0 |
  1115 |TRAC73  |   1657 |      0 |  23 |       0 |
  1128 |TRAC74  |   1680 |      0 |  23 |       0 |
  1141 |TRAC75  |   1703 |      0 |  23 |       0 |
  1154 |TRAC76  |   1726 |      0 |  23 |       0 |
  1167 |TRAC77  |   1749 |      0 |  23 |       0 |
  1180 |TRAC78  |   1772 |      0 |  23 |       0 |
  1193 |TRAC79  |   1795 |      0 |  23 |       0 |
  1206 |TRAC80  |   1818 |      0 |  23 |       0 |
  1219 |TRAC81  |   1841 |      0 |  23 |       0 |
  1232 |TRAC82  |   1864 |      0 |  23 |       0 |
  1245 |TRAC83  |   1887 |      0 |  23 |       0 |
  1258 |TRAC84  |   1910 |      0 |  23 |       0 |
  1271 |TRAC85  |   1933 |      0 |  23 |       0 |
  1284 |TRAC86  |   1956 |      0 |  23 |       0 |
  1297 |TRAC87  |   1979 |      0 |  23 |       0 |
  1310 |TRAC88  |   2002 |      0 |  23 |       0 |
  1323 |TRAC89  |   2025 |      0 |  23 |       0 |
  1336 |TRAC90  |   2048 |      0 |  23 |       0 |
  1349 |TRAC91  |   2071 |      0 |  23 |       0 |
  1362 |TRAC92  |   2094 |      0 |  23 |       0 |
  1375 |TRAC93  |   2117 |      0 |  23 |       0 |
  1388 |TRAC94  |   2140 |      0 |  23 |       0 |
  1401 |TRAC95  |   2163 |      0 |  23 |       0 |
  1414 |TRAC96  |   2186 |      0 |  23 |       0 |
  1427 |TRAC97  |   2209 |      0 |  23 |       0 |
  1440 |TRAC98  |   2232 |      0 |  23 |       0 |
  1453 |TRAC99  |   2255 |      0 |  23 |       0 |
  1466 |TRAC0a  |   2278 |      0 |  23 |       0 |
  1479 |TRAC0b  |   2301 |      0 |  23 |       0 |
  1492 |TRAC0c  |   2324 |      0 |  23 |       0 |
  1505 |TRAC0d  |   2347 |      0 |  23 |       0 |
  1518 |TRAC0e  |   2370 |      0 |  23 |       0 |
  1531 |TRAC0f  |   2393 |      0 |  23 |       0 |
  1544 |TRAC0g  |   2416 |      0 |  23 |       0 |
  1557 |TRAC0h  |   2439 |      0 |  23 |       0 |
  1570 |TRAC0i  |   2462 |      0 |  23 |       0 |
  1583 |TRAC0j  |   2485 |      0 |  23 |       0 |
  1596 |TRAC0k  |   2508 |      0 |  23 |       0 |
  1609 |TRAC0l  |   2531 |      0 |  23 |       0 |
  1622 |TRAC0m  |   2554 |      0 |  23 |       0 |
  1635 |TRAC0n  |   2577 |      0 |  23 |       0 |
   179 |TRAC01  |     -1 |      0 |  23 |       0 |
  1648 |TRAC0o  |   2600 |      0 |  23 |       0 |
  1674 |TRAC0q  |   2623 |      0 |  23 |       0 |
  1687 |TRAC0r  |   2646 |      0 |  23 |       0 |
  1700 |TRAC0s  |   2669 |      0 |  23 |       0 |
  1713 |TRAC0t  |   2692 |      0 |  23 |       0 |
  1726 |TRAC0u  |   2715 |      0 |  23 |       0 |
  1739 |TRAC0v  |   2738 |      0 |  23 |       0 |
  1752 |TRAC0w  |   2761 |      0 |  23 |       0 |
  1765 |TRAC0x  |   2784 |      0 |  23 |       0 |
  1778 |TRAC0y  |   2807 |      0 |  23 |       0 |
  1791 |TRAC0z  |   2830 |      0 |  23 |       0 |
  1804 |TRAC0A  |   2853 |      0 |  23 |       0 |
  1817 |TRAC0B  |   2876 |      0 |  23 |       0 |
  1830 |TRAC0C  |   2899 |      0 |  23 |       0 |
  1843 |TRAC0D  |   2922 |      0 |  23 |       0 |
  1856 |TRAC0E  |   2945 |      0 |  23 |       0 |
  1869 |TRAC0F  |   2968 |      0 |  23 |       0 |
  1882 |TRAC0G  |   2991 |      0 |  23 |       0 |
  1895 |TRAC0H  |   3014 |      0 |  23 |       0 |
  1908 |TRAC0I  |   3037 |      0 |  23 |       0 |
  1921 |TRAC0J  |   3060 |      0 |  23 |       0 |
  1934 |TRAC0K  |   3083 |      0 |  23 |       0 |
  1947 |TRAC0L  |   3106 |      0 |  23 |       0 |
  1960 |TRAC0M  |   3129 |      0 |  23 |       0 |
  1973 |TRAC0N  |   3152 |      0 |  23 |       0 |
   179 |TRAC01  |     -1 |      0 |  23 |       0 |
  1986 |TRAC0O  |   3175 |      0 |  23 |       0 |
  2012 |TRAC0Q  |   3198 |      0 |  23 |       0 |
  2025 |TRAC0R  |   3221 |      0 |  23 |       0 |
  2038 |TRAC0S  |   3244 |      0 |  23 |       0 |
  2051 |TRAC0T  |   3267 |      0 |  23 |       0 |
  2064 |TRAC0U  |   3290 |      0 |  23 |       0 |
  2077 |TRAC0V  |   3313 |      0 |  23 |       0 |
  2090 |TRAC0W  |   3336 |      0 |  23 |       0 |
  2103 |TRAC0X  |   3359 |      0 |  23 |       0 |
  2116 |TRAC0Y  |   3382 |      0 |  23 |       0 |
  2129 |TRAC0Z  |   3405 |      0 |  23 |       0 |
  2142 |TRAC1a  |   3428 |      0 |  23 |       0 |
  2155 |TRAC1b  |   3451 |      0 |  23 |       0 |
  2168 |TRAC1c  |   3474 |      0 |  23 |       0 |
  2181 |TRAC1d  |   3497 |      0 |  23 |       0 |
  2194 |TRAC1e  |   3520 |      0 |  23 |       0 |
  2207 |TRAC1f  |   3543 |      0 |  23 |       0 |
  2220 |TRAC1g  |   3566 |      0 |  23 |       0 |
  2233 |TRAC1h  |   3589 |      0 |  23 |       0 |
  2246 |TRAC1i  |   3612 |      0 |  23 |       0 |
  2259 |TRAC1j  |   3635 |      0 |  23 |       0 |
  2272 |TRAC1k  |   3658 |      0 |  23 |       0 |
  2285 |TRAC1l  |   3681 |      0 |  23 |       0 |
  2298 |TRAC1m  |   3704 |      0 |  23 |       0 |
  2311 |TRAC1n  |   3727 |      0 |  23 |       0 |
   309 |TRAC11  |   -231 |      0 |  23 |       0 |
  2324 |TRAC1o  |   3750 |      0 |  23 |       0 |
  2350 |TRAC1q  |   3773 |      0 |  23 |       0 |
  2363 |TRAC1r  |   3796 |      0 |  23 |       0 |
  2376 |TRAC1s  |   3819 |      0 |  23 |       0 |
  2389 |TRAC1t  |   3842 |      0 |  23 |       0 |
  2402 |TRAC1u  |   3865 |      0 |  23 |       0 |
  2415 |TRAC1v  |   3888 |      0 |  23 |       0 |
  2428 |TRAC1w  |   3911 |      0 |  23 |       0 |
  2441 |TRAC1x  |   3934 |      0 |  23 |       0 |
  2454 |TRAC1y  |   3957 |      0 |  23 |       0 |
  2467 |TRAC1z  |   3980 |      0 |  23 |       0 |
  2480 |TRAC1A  |   4003 |      0 |  23 |       0 |
  2493 |TRAC1B  |   4026 |      0 |  23 |       0 |
  2506 |TRAC1C  |   4049 |      0 |  23 |       0 |
  2519 |TRAC1D  |   4072 |      0 |  23 |       0 |
  2532 |TRAC1E  |   4095 |      0 |  23 |       0 |
  2545 |TRAC1F  |   4118 |      0 |  23 |       0 |
  2558 |TRAC1G  |   4141 |      0 |  23 |       0 |
  2571 |TRAC1H  |   4164 |      0 |  23 |       0 |
  2584 |TRAC1I  |   4187 |      0 |  23 |       0 |
  2597 |TRAC1J  |   4210 |      0 |  23 |       0 |
  2610 |TRAC1K  |   4233 |      0 |  23 |       0 |
  2623 |TRAC1L  |   4256 |      0 |  23 |       0 |
  2636 |TRAC1M  |   4279 |      0 |  23 |       0 |
  2649 |TRAC1N  |   4302 |      0 |  23 |       0 |
   309 |TRAC11  |   -231 |      0 |  23 |       0 |
  2662 |TRAC1O  |   4325 |      0 |  23 |       0 |
  2688 |TRAC1Q  |   4348 |      0 |  23 |       0 |
  2701 |TRAC1R  |   4371 |      0 |  23 |       0 |
  2714 |TRAC1S  |   4394 |      0 |  23 |       0 |
  2727 |TRAC1T  |   4417 |      0 |  23 |       0 |
  2740 |TRAC1U  |   4440 |      0 |  23 |       0 |
  2753 |TRAC1V  |   4463 |      0 |  23 |       0 |
  2766 |TRAC1W  |   4486 |      0 |  23 |       0 |
  2779 |TRAC1X  |   4509 |      0 |  23 |       0 |
  2792 |TRAC1Y  |   4532 |      0 |  23 |       0 |
  2805 |TRAC1Z  |   4555 |      0 |  23 |       0 |
  2818 |TRAC2a  |   4578 |      0 |  23 |       0 |
  2831 |TRAC2b  |   4601 |      0 |  23 |       0 |
  2844 |TRAC2c  |   4624 |      0 |  23 |       0 |
  2857 |TRAC2d  |   4647 |      0 |  23 |       0 |
  2870 |TRAC2e  |   4670 |      0 |  23 |       0 |
  2883 |TRAC2f  |   4693 |      0 |  23 |       0 |
  2896 |TRAC2g  |   4716 |      0 |  23 |       0 |
  2909 |TRAC2h  |   4739 |      0 |  23 |       0 |
  2922 |TRAC2i  |   4762 |      0 |  23 |       0 |
  2935 |TRAC2j  |   4785 |      0 |  23 |       0 |
  2948 |TRAC2k  |   4808 |      0 |  23 |       0 |
  2961 |TRAC2l  |   4831 |      0 |  23 |       0 |
  2974 |TRAC2m  |   4854 |      0 |  23 |       0 |
  2987 |TRAC2n  |   4877 |      0 |  23 |       0 |
   439 |TRAC21  |   -461 |      0 |  23 |       0 |
  3000 |TRAC2o  |   4900 |      0 |  23 |       0 |
  3026 |TRAC2q  |   4923 |      0 |  23 |       0 |
  3039 |TRAC2r  |   4946 |      0 |  23 |       0 |
  3052 |TRAC2s  |   4969 |      0 |  23 |       0 |
  3065 |TRAC2t  |   4992 |      0 |  23 |       0 |
  3078 |TRAC2u  |   5015 |      0 |  23 |       0 |
  3091 |TRAC2v  |   5038 |      0 |  23 |       0 |
  3104 |TRAC2w  |   5061 |      0 |  23 |       0 |
  3117 |TRAC2x  |   5084 |      0 |  23 |       0 |
  3130 |TRAC2y  |   5107 |      0 |  23 |       0 |
  3143 |TRAC2z  |   5130 |      0 |  23 |       0 |
  3156 |TRAC2A  |   5153 |      0 |  23 |       0 |
  3169 |TRAC2B  |   5176 |      0 |  23 |       0 |
  3182 |TRAC2C  |   5199 |      0 |  23 |       0 |
  3195 |TRAC2D  |   5222 |      0 |  23 |       0 |
  3216 |PAR01   |   5245 |      0 |  23 |       0 |
  3209 |PP      |   5268 |      0 |  23 |       0 |
  3210 |Nfix    |   5291 |      0 |  23 |       0 |
  3211 |Denit   |   5314 |      0 |  23 |       0 |
------------------------------------------------------------------------
Global & Regional Statistics diagnostics: Number of lists:     3
------------------------------------------------------------------------
listId=   1 ; file name: statsPP
 nFlds, nActive,       freq     &     phase        |                    
    1  |    1  |     10800.000000         0.000000 |
 Regions:   0
 diag# | name   |   ipt  |  iMate |    Volume   |   mate-Vol. |         
  3209 |PP      |      1 |      0 | 0.00000E+00 |
------------------------------------------------------------------------
listId=   2 ; file name: statsNfix
 nFlds, nActive,       freq     &     phase        |                    
    1  |    1  |     10800.000000         0.000000 |
 Regions:   0
 diag# | name   |   ipt  |  iMate |    Volume   |   mate-Vol. |         
  3210 |Nfix    |     24 |      0 | 0.00000E+00 |
------------------------------------------------------------------------
listId=   3 ; file name: statsDenit
 nFlds, nActive,       freq     &     phase        |                    
    1  |    1  |     10800.000000         0.000000 |
 Regions:   0
 diag# | name   |   ipt  |  iMate |    Volume   |   mate-Vol. |         
  3211 |Denit   |     47 |      0 | 0.00000E+00 |
------------------------------------------------------------------------
 OFFLINE_FIELDS_LOAD, it=         0 : Reading new data, i0,i1=  360    1 (prev=  360    0 )
(PID.TID 0000.0001)  MDS_READ_FIELD: opening global file: /nobackup1/stephdut/ECCO_Iter3.73daily/DDuvel/DDuvel.0000087552.data
(PID.TID 0000.0001)  MDS_READ_FIELD: opening global file: /nobackup1/stephdut/ECCO_Iter3.73daily/DDuvel/DDuvel.0000078936.data
(PID.TID 0000.0001)  MDS_READ_FIELD: opening global file: /nobackup1/stephdut/ECCO_Iter3.73daily/DDvvel/DDvvel.0000087552.data
(PID.TID 0000.0001)  MDS_READ_FIELD: opening global file: /nobackup1/stephdut/ECCO_Iter3.73daily/DDvvel/DDvvel.0000078936.data
(PID.TID 0000.0001)  MDS_READ_FIELD: opening global file: /nobackup1/stephdut/ECCO_Iter3.73daily/DDwvel/DDwvel.0000087552.data
(PID.TID 0000.0001)  MDS_READ_FIELD: opening global file: /nobackup1/stephdut/ECCO_Iter3.73daily/DDwvel/DDwvel.0000078936.data
(PID.TID 0000.0001)  MDS_READ_FIELD: opening global file: /nobackup1/stephdut/ECCO_Iter3.73daily/DDtheta/DDtheta.0000087552.data
(PID.TID 0000.0001)  MDS_READ_FIELD: opening global file: /nobackup1/stephdut/ECCO_Iter3.73daily/DDtheta/DDtheta.0000078936.data
(PID.TID 0000.0001)  MDS_READ_FIELD: opening global file: /nobackup1/stephdut/ECCO_Iter3.73daily/DDsalt/DDsalt.0000087552.data
(PID.TID 0000.0001)  MDS_READ_FIELD: opening global file: /nobackup1/stephdut/ECCO_Iter3.73daily/DDsalt/DDsalt.0000078936.data
(PID.TID 0000.0001)  MDS_READ_FIELD: opening global file: /nobackup1/stephdut/ECCO_Iter3.73daily/DGMkwx/DGMkwx.0000087552.data
(PID.TID 0000.0001)  MDS_READ_FIELD: opening global file: /nobackup1/stephdut/ECCO_Iter3.73daily/DGMkwx/DGMkwx.0000078936.data
(PID.TID 0000.0001)  MDS_READ_FIELD: opening global file: /nobackup1/stephdut/ECCO_Iter3.73daily/DGMkwy/DGMkwy.0000087552.data
(PID.TID 0000.0001)  MDS_READ_FIELD: opening global file: /nobackup1/stephdut/ECCO_Iter3.73daily/DGMkwy/DGMkwy.0000078936.data
(PID.TID 0000.0001)  MDS_READ_FIELD: opening global file: /nobackup1/stephdut/ECCO_Iter3.73daily/DGMkwz/DGMkwz.0000087552.data
(PID.TID 0000.0001)  MDS_READ_FIELD: opening global file: /nobackup1/stephdut/ECCO_Iter3.73daily/DGMkwz/DGMkwz.0000078936.data
(PID.TID 0000.0001)  MDS_READ_FIELD: opening global file: /nobackup1/stephdut/ECCO_Iter3.73daily/DKPPdiffs/DKPPdiffs.0000087552.data
(PID.TID 0000.0001)  MDS_READ_FIELD: opening global file: /nobackup1/stephdut/ECCO_Iter3.73daily/DKPPdiffs/DKPPdiffs.0000078936.data
(PID.TID 0000.0001)  MDS_READ_FIELD: opening global file: /nobackup1/stephdut/ECCO_Iter3.73daily/DKPPghatK/DKPPghatK.0000087552.data
(PID.TID 0000.0001)  MDS_READ_FIELD: opening global file: /nobackup1/stephdut/ECCO_Iter3.73daily/DKPPghatK/DKPPghatK.0000078936.data
(PID.TID 0000.0001)  MDS_READ_FIELD: opening global file: /nobackup1/stephdut/ECCO_Iter3.73daily/DFOSflux/DFOSflux.0000087552.data
(PID.TID 0000.0001)  MDS_READ_FIELD: opening global file: /nobackup1/stephdut/ECCO_Iter3.73daily/DFOSflux/DFOSflux.0000078936.data
(PID.TID 0000.0001)  MDS_READ_FIELD: opening global file: ../../../input/eccov3_R8/glodap_tco2_ann-3d.bin
(PID.TID 0000.0001)  MDS_READ_FIELD: opening global file: ../../../input/DARWIN_ECCO_run17_R8/nh4_y2000.data
(PID.TID 0000.0001)  MDS_READ_FIELD: opening global file: ../../../input/DARWIN_ECCO_run17_R8/no2_y2000.data
(PID.TID 0000.0001)  MDS_READ_FIELD: opening global file: ../../../input/eccov3_R8/lev01_nitrate_ann-3d.bin
(PID.TID 0000.0001)  MDS_READ_FIELD: opening global file: ../../../input/eccov3_R8/lev01_phosphate_ann-3d.bin
(PID.TID 0000.0001)  MDS_READ_FIELD: opening global file: ../../../input/eccov3_R8/lev01_silicate_ann-3d.bin
(PID.TID 0000.0001)  MDS_READ_FIELD: opening global file: ../../../input/DARWIN_ECCO_run17_R8/fet_y2000.data
(PID.TID 0000.0001)  MDS_READ_FIELD: opening global file: ../../../input/DARWIN_ECCO_run17_R8/doc_y2000.data
(PID.TID 0000.0001)  MDS_READ_FIELD: opening global file: ../../../input/DARWIN_ECCO_run17_R8/don_y2000.data
(PID.TID 0000.0001)  MDS_READ_FIELD: opening global file: ../../../input/DARWIN_ECCO_run17_R8/dop_y2000.data
(PID.TID 0000.0001)  MDS_READ_FIELD: opening global file: ../../../input/DARWIN_ECCO_run17_R8/dofe_y2000.data
(PID.TID 0000.0001)  MDS_READ_FIELD: opening global file: ../../../input/DARWIN_ECCO_run17_R8/poc_y2000.data
(PID.TID 0000.0001)  MDS_READ_FIELD: opening global file: ../../../input/DARWIN_ECCO_run17_R8/pon_y2000.data
(PID.TID 0000.0001)  MDS_READ_FIELD: opening global file: ../../../input/DARWIN_ECCO_run17_R8/pop_y2000.data
(PID.TID 0000.0001)  MDS_READ_FIELD: opening global file: ../../../input/DARWIN_ECCO_run17_R8/posi_y2000.data
(PID.TID 0000.0001)  MDS_READ_FIELD: opening global file: ../../../input/DARWIN_ECCO_run17_R8/pofe_y2000.data
(PID.TID 0000.0001)  MDS_READ_FIELD: opening global file: ../../../input/DARWIN_ECCO_run17_R8/pic_y2000.data
(PID.TID 0000.0001)  MDS_READ_FIELD: opening global file: ../../../input/eccov3_R8/glodap_alk_ann-3d.bin
(PID.TID 0000.0001)  MDS_READ_FIELD: opening global file: ../../../input/eccov3_R8/lev01_oxygen_micromolar_ann-3d.bin
(PID.TID 0000.0001)  MDS_READ_FIELD: opening global file: ../../../input/eccov3_R8/phy78_x120_lev01.bin
(PID.TID 0000.0001)  MDS_READ_FIELD: opening global file: ../../../input/eccov3_R8/phy78_x120_lev01.bin
(PID.TID 0000.0001)  MDS_READ_FIELD: opening global file: ../../../input/eccov3_R8/phy78_x120_lev01.bin
(PID.TID 0000.0001)  MDS_READ_FIELD: opening global file: ../../../input/eccov3_R8/phy78_x120_lev01.bin
(PID.TID 0000.0001)  MDS_READ_FIELD: opening global file: ../../../input/eccov3_R8/phy78_x120_lev01.bin
(PID.TID 0000.0001)  MDS_READ_FIELD: opening global file: ../../../input/eccov3_R8/phy78_x120_lev01.bin
(PID.TID 0000.0001)  MDS_READ_FIELD: opening global file: ../../../input/eccov3_R8/phy78_x120_lev01.bin
(PID.TID 0000.0001)  MDS_READ_FIELD: opening global file: ../../../input/eccov3_R8/phy78_x120_lev01.bin
(PID.TID 0000.0001)  MDS_READ_FIELD: opening global file: ../../../input/eccov3_R8/phy78_x120_lev01.bin
(PID.TID 0000.0001)  MDS_READ_FIELD: opening global file: ../../../input/eccov3_R8/phy78_x120_lev01.bin
(PID.TID 0000.0001)  MDS_READ_FIELD: opening global file: ../../../input/eccov3_R8/phy78_x120_lev01.bin
(PID.TID 0000.0001)  MDS_READ_FIELD: opening global file: ../../../input/eccov3_R8/phy78_x120_lev01.bin
(PID.TID 0000.0001)  MDS_READ_FIELD: opening global file: ../../../input/eccov3_R8/phy78_x120_lev01.bin
(PID.TID 0000.0001)  MDS_READ_FIELD: opening global file: ../../../input/eccov3_R8/phy78_x120_lev01.bin
(PID.TID 0000.0001)  MDS_READ_FIELD: opening global file: ../../../input/eccov3_R8/phy78_x120_lev01.bin
(PID.TID 0000.0001)  MDS_READ_FIELD: opening global file: ../../../input/eccov3_R8/phy78_x120_lev01.bin
(PID.TID 0000.0001)  MDS_READ_FIELD: opening global file: ../../../input/eccov3_R8/phy78_x120_lev01.bin
(PID.TID 0000.0001)  MDS_READ_FIELD: opening global file: ../../../input/eccov3_R8/phy78_x120_lev01.bin
(PID.TID 0000.0001)  MDS_READ_FIELD: opening global file: ../../../input/eccov3_R8/phy78_x120_lev01.bin
(PID.TID 0000.0001)  MDS_READ_FIELD: opening global file: ../../../input/eccov3_R8/phy78_x120_lev01.bin
(PID.TID 0000.0001)  MDS_READ_FIELD: opening global file: ../../../input/eccov3_R8/phy78_x120_lev01.bin
(PID.TID 0000.0001)  MDS_READ_FIELD: opening global file: ../../../input/eccov3_R8/phy78_x120_lev01.bin
(PID.TID 0000.0001)  MDS_READ_FIELD: opening global file: ../../../input/eccov3_R8/phy78_x120_lev01.bin
(PID.TID 0000.0001)  MDS_READ_FIELD: opening global file: ../../../input/eccov3_R8/phy78_x120_lev01.bin
(PID.TID 0000.0001)  MDS_READ_FIELD: opening global file: ../../../input/eccov3_R8/phy78_x120_lev01.bin
(PID.TID 0000.0001)  MDS_READ_FIELD: opening global file: ../../../input/eccov3_R8/phy78_x120_lev01.bin
(PID.TID 0000.0001)  MDS_READ_FIELD: opening global file: ../../../input/eccov3_R8/phy78_x120_lev01.bin
(PID.TID 0000.0001)  MDS_READ_FIELD: opening global file: ../../../input/eccov3_R8/phy78_x120_lev01.bin
(PID.TID 0000.0001)  MDS_READ_FIELD: opening global file: ../../../input/eccov3_R8/phy78_x120_lev01.bin
(PID.TID 0000.0001)  MDS_READ_FIELD: opening global file: ../../../input/eccov3_R8/phy78_x120_lev01.bin
(PID.TID 0000.0001)  MDS_READ_FIELD: opening global file: ../../../input/eccov3_R8/phy78_x120_lev01.bin
(PID.TID 0000.0001)  MDS_READ_FIELD: opening global file: ../../../input/eccov3_R8/phy78_x120_lev01.bin
(PID.TID 0000.0001)  MDS_READ_FIELD: opening global file: ../../../input/eccov3_R8/phy78_x120_lev01.bin
(PID.TID 0000.0001)  MDS_READ_FIELD: opening global file: ../../../input/eccov3_R8/phy78_x120_lev01.bin
(PID.TID 0000.0001)  MDS_READ_FIELD: opening global file: ../../../input/eccov3_R8/phy78_x120_lev01.bin
(PID.TID 0000.0001)  MDS_READ_FIELD: opening global file: ../../../input/eccov3_R8/phy78_x120_lev01.bin
(PID.TID 0000.0001)  MDS_READ_FIELD: opening global file: ../../../input/eccov3_R8/phy78_x120_lev01.bin
(PID.TID 0000.0001)  MDS_READ_FIELD: opening global file: ../../../input/eccov3_R8/phy78_x120_lev01.bin
(PID.TID 0000.0001)  MDS_READ_FIELD: opening global file: ../../../input/eccov3_R8/phy78_x16_lev01.bin
(PID.TID 0000.0001)  MDS_READ_FIELD: opening global file: ../../../input/eccov3_R8/phy78_x16_lev01.bin
(PID.TID 0000.0001)  MDS_READ_FIELD: opening global file: ../../../input/eccov3_R8/phy78_x16_lev01.bin
(PID.TID 0000.0001)  MDS_READ_FIELD: opening global file: ../../../input/eccov3_R8/phy78_x16_lev01.bin
(PID.TID 0000.0001)  MDS_READ_FIELD: opening global file: ../../../input/eccov3_R8/phy78_x40_lev01.bin
(PID.TID 0000.0001)  MDS_READ_FIELD: opening global file: ../../../input/eccov3_R8/phy78_x16_lev01.bin
(PID.TID 0000.0001)  MDS_READ_FIELD: opening global file: ../../../input/eccov3_R8/phy78_x16_lev01.bin
(PID.TID 0000.0001)  MDS_READ_FIELD: opening global file: ../../../input/eccov3_R8/phy78_x40_lev01.bin
(PID.TID 0000.0001)  MDS_READ_FIELD: opening global file: ../../../input/eccov3_R8/phy78_x16_lev01.bin
(PID.TID 0000.0001)  MDS_READ_FIELD: opening global file: ../../../input/eccov3_R8/phy78_x16_lev01.bin
(PID.TID 0000.0001)  MDS_READ_FIELD: opening global file: ../../../input/eccov3_R8/phy78_x40_lev01.bin
(PID.TID 0000.0001)  MDS_READ_FIELD: opening global file: ../../../input/eccov3_R8/phy78_x16_lev01.bin
(PID.TID 0000.0001)  MDS_READ_FIELD: opening global file: ../../../input/eccov3_R8/phy78_x16_lev01.bin
(PID.TID 0000.0001)  MDS_READ_FIELD: opening global file: ../../../input/eccov3_R8/phy78_x40_lev01.bin
(PID.TID 0000.0001)  MDS_READ_FIELD: opening global file: ../../../input/eccov3_R8/phy78_x16_lev01.bin
(PID.TID 0000.0001)  MDS_READ_FIELD: opening global file: ../../../input/eccov3_R8/phy78_x16_lev01.bin
(PID.TID 0000.0001)  MDS_READ_FIELD: opening global file: ../../../input/eccov3_R8/phy78_x40_lev01.bin
(PID.TID 0000.0001)  MDS_READ_FIELD: opening global file: ../../../input/eccov3_R8/phy78_x16_lev01.bin
(PID.TID 0000.0001)  MDS_READ_FIELD: opening global file: ../../../input/eccov3_R8/phy78_x16_lev01.bin
(PID.TID 0000.0001)  MDS_READ_FIELD: opening global file: ../../../input/eccov3_R8/phy78_x16_lev01.bin
(PID.TID 0000.0001)  MDS_READ_FIELD: opening global file: ../../../input/eccov3_R8/phy78_x16_lev01.bin
(PID.TID 0000.0001)  MDS_READ_FIELD: opening global file: ../../../input/eccov3_R8/phy78_x16_lev01.bin
(PID.TID 0000.0001)  MDS_READ_FIELD: opening global file: ../../../input/eccov3_R8/phy78_x16_lev01.bin
(PID.TID 0000.0001)  MDS_READ_FIELD: opening global file: ../../../input/eccov3_R8/phy78_x16_lev01.bin
(PID.TID 0000.0001)  MDS_READ_FIELD: opening global file: ../../../input/eccov3_R8/phy78_x16_lev01.bin
(PID.TID 0000.0001)  MDS_READ_FIELD: opening global file: ../../../input/eccov3_R8/phy78_x16_lev01.bin
(PID.TID 0000.0001)  MDS_READ_FIELD: opening global file: ../../../input/eccov3_R8/phy78_x16_lev01.bin
(PID.TID 0000.0001)  MDS_READ_FIELD: opening global file: ../../../input/eccov3_R8/phy78_x16_lev01.bin
(PID.TID 0000.0001)  MDS_READ_FIELD: opening global file: ../../../input/eccov3_R8/phy78_x16_lev01.bin
(PID.TID 0000.0001)  MDS_READ_FIELD: opening global file: ../../../input/eccov3_R8/phy78_x16_lev01.bin
(PID.TID 0000.0001)  MDS_READ_FIELD: opening global file: ../../../input/eccov3_R8/phy78_x16_lev01.bin
(PID.TID 0000.0001)  MDS_READ_FIELD: opening global file: ../../../input/eccov3_R8/phy78_x16_lev01.bin
(PID.TID 0000.0001)  MDS_READ_FIELD: opening global file: ../../../input/eccov3_R8/phy78_x16_lev01.bin
(PID.TID 0000.0001)  MDS_READ_FIELD: opening global file: ../../../input/eccov3_R8/phy78_x16_lev01.bin
(PID.TID 0000.0001)  MDS_READ_FIELD: opening global file: ../../../input/eccov3_R8/phy78_x16_lev01.bin
(PID.TID 0000.0001)  MDS_READ_FIELD: opening global file: ../../../input/eccov3_R8/phy78_x16_lev01.bin
(PID.TID 0000.0001)  MDS_READ_FIELD: opening global file: ../../../input/eccov3_R8/phy78_x16_lev01.bin
(PID.TID 0000.0001)  MDS_READ_FIELD: opening global file: ../../../input/eccov3_R8/phy78_x16_lev01.bin
(PID.TID 0000.0001)  MDS_READ_FIELD: opening global file: ../../../input/eccov3_R8/phy78_lev01.bin
(PID.TID 0000.0001)  MDS_READ_FIELD: opening global file: ../../../input/eccov3_R8/phy78_lev01.bin
(PID.TID 0000.0001)  MDS_READ_FIELD: opening global file: ../../../input/eccov3_R8/phy78_lev01.bin
(PID.TID 0000.0001)  MDS_READ_FIELD: opening global file: ../../../input/eccov3_R8/phy78_lev01.bin
(PID.TID 0000.0001)  MDS_READ_FIELD: opening global file: ../../../input/eccov3_R8/phy78_lev01.bin
(PID.TID 0000.0001)  MDS_READ_FIELD: opening global file: ../../../input/eccov3_R8/phy78_lev01.bin
(PID.TID 0000.0001)  MDS_READ_FIELD: opening global file: ../../../input/eccov3_R8/phy78_lev01.bin
(PID.TID 0000.0001)  MDS_READ_FIELD: opening global file: ../../../input/eccov3_R8/phy78_lev01.bin
(PID.TID 0000.0001)  MDS_READ_FIELD: opening global file: ../../../input/eccov3_R8/phy78_lev01.bin
(PID.TID 0000.0001)  MDS_READ_FIELD: opening global file: ../../../input/eccov3_R8/phy78_lev01.bin
(PID.TID 0000.0001)  MDS_READ_FIELD: opening global file: ../../../input/eccov3_R8/phy78_lev01.bin
(PID.TID 0000.0001)  MDS_READ_FIELD: opening global file: ../../../input/eccov3_R8/phy78_lev01.bin
(PID.TID 0000.0001)  MDS_READ_FIELD: opening global file: ../../../input/eccov3_R8/phy78_lev01.bin
(PID.TID 0000.0001)  MDS_READ_FIELD: opening global file: ../../../input/eccov3_R8/phy78_lev01.bin
(PID.TID 0000.0001)  MDS_READ_FIELD: opening global file: ../../../input/eccov3_R8/phy78_lev01.bin
(PID.TID 0000.0001)  MDS_READ_FIELD: opening global file: ../../../input/eccov3_R8/phy78_lev01.bin
(PID.TID 0000.0001)  MDS_READ_FIELD: opening global file: ../../../input/eccov3_R8/phy78_lev01.bin
(PID.TID 0000.0001)  MDS_READ_FIELD: opening global file: ../../../input/eccov3_R8/phy78_lev01.bin
(PID.TID 0000.0001)  MDS_READ_FIELD: opening global file: ../../../input/eccov3_R8/phy78_lev01.bin
(PID.TID 0000.0001)  MDS_READ_FIELD: opening global file: ../../../input/eccov3_R8/phy78_lev01.bin
(PID.TID 0000.0001)  MDS_READ_FIELD: opening global file: ../../../input/eccov3_R8/phy78_lev01.bin
(PID.TID 0000.0001)  MDS_READ_FIELD: opening global file: ../../../input/eccov3_R8/phy78_lev01.bin
(PID.TID 0000.0001)  MDS_READ_FIELD: opening global file: ../../../input/eccov3_R8/phy78_lev01.bin
(PID.TID 0000.0001)  MDS_READ_FIELD: opening global file: ../../../input/eccov3_R8/phy78_lev01.bin
(PID.TID 0000.0001)  MDS_READ_FIELD: opening global file: ../../../input/eccov3_R8/phy78_lev01.bin
(PID.TID 0000.0001)  MDS_READ_FIELD: opening global file: ../../../input/eccov3_R8/phy78_lev01.bin
(PID.TID 0000.0001)  MDS_READ_FIELD: opening global file: ../../../input/eccov3_R8/phy78_lev01.bin
(PID.TID 0000.0001)  MDS_READ_FIELD: opening global file: ../../../input/eccov3_R8/phy78_lev01.bin
(PID.TID 0000.0001)  MDS_READ_FIELD: opening global file: ../../../input/eccov3_R8/phy78_lev01.bin
(PID.TID 0000.0001)  MDS_READ_FIELD: opening global file: ../../../input/eccov3_R8/phy78_lev01.bin
(PID.TID 0000.0001)  MDS_READ_FIELD: opening global file: ../../../input/eccov3_R8/phy78_lev01.bin
(PID.TID 0000.0001)  MDS_READ_FIELD: opening global file: ../../../input/eccov3_R8/phy78_lev01.bin
(PID.TID 0000.0001)  MDS_READ_FIELD: opening global file: ../../../input/eccov3_R8/phy78_lev01.bin
(PID.TID 0000.0001)  MDS_READ_FIELD: opening global file: ../../../input/eccov3_R8/phy78_lev01.bin
(PID.TID 0000.0001)  MDS_READ_FIELD: opening global file: ../../../input/eccov3_R8/phy78_lev01.bin
(PID.TID 0000.0001)  MDS_READ_FIELD: opening global file: ../../../input/eccov3_R8/phy78_lev01.bin
(PID.TID 0000.0001)  MDS_READ_FIELD: opening global file: ../../../input/eccov3_R8/phy78_lev01.bin
(PID.TID 0000.0001)  MDS_READ_FIELD: opening global file: ../../../input/eccov3_R8/phy78_lev01.bin
(PID.TID 0000.0001)  MDS_READ_FIELD: opening global file: ../../../input/eccov3_R8/phy78_x16_lev01.bin
(PID.TID 0000.0001)  MDS_READ_FIELD: opening global file: ../../../input/eccov3_R8/phy78_x16_lev01.bin
(PID.TID 0000.0001)  MDS_READ_FIELD: opening global file: ../../../input/eccov3_R8/phy78_x16_lev01.bin
(PID.TID 0000.0001)  MDS_READ_FIELD: opening global file: ../../../input/eccov3_R8/phy78_x16_lev01.bin
(PID.TID 0000.0001)  MDS_READ_FIELD: opening global file: ../../../input/eccov3_R8/phy78_x16_lev01.bin
(PID.TID 0000.0001)  MDS_READ_FIELD: opening global file: ../../../input/eccov3_R8/phy78_x16_lev01.bin
(PID.TID 0000.0001)  MDS_READ_FIELD: opening global file: ../../../input/eccov3_R8/phy78_x16_lev01.bin
(PID.TID 0000.0001)  MDS_READ_FIELD: opening global file: ../../../input/eccov3_R8/phy78_x16_lev01.bin
(PID.TID 0000.0001)  MDS_READ_FIELD: opening global file: ../../../input/eccov3_R8/phy78_x16_lev01.bin
(PID.TID 0000.0001)  MDS_READ_FIELD: opening global file: ../../../input/eccov3_R8/phy78_x0.001_lev01.bin
(PID.TID 0000.0001)  MDS_READ_FIELD: opening global file: ../../../input/eccov3_R8/phy78_x0.001_lev01.bin
(PID.TID 0000.0001)  MDS_READ_FIELD: opening global file: ../../../input/eccov3_R8/phy78_x0.001_lev01.bin
(PID.TID 0000.0001)  MDS_READ_FIELD: opening global file: ../../../input/eccov3_R8/phy78_x0.001_lev01.bin
(PID.TID 0000.0001)  MDS_READ_FIELD: opening global file: ../../../input/eccov3_R8/phy78_x0.004_lev01.bin
(PID.TID 0000.0001)  MDS_READ_FIELD: opening global file: ../../../input/eccov3_R8/phy78_x0.001_lev01.bin
(PID.TID 0000.0001)  MDS_READ_FIELD: opening global file: ../../../input/eccov3_R8/phy78_x0.001_lev01.bin
(PID.TID 0000.0001)  MDS_READ_FIELD: opening global file: ../../../input/eccov3_R8/phy78_x0.004_lev01.bin
(PID.TID 0000.0001)  MDS_READ_FIELD: opening global file: ../../../input/eccov3_R8/phy78_x0.001_lev01.bin
(PID.TID 0000.0001)  MDS_READ_FIELD: opening global file: ../../../input/eccov3_R8/phy78_x0.001_lev01.bin
(PID.TID 0000.0001)  MDS_READ_FIELD: opening global file: ../../../input/eccov3_R8/phy78_x0.004_lev01.bin
(PID.TID 0000.0001)  MDS_READ_FIELD: opening global file: ../../../input/eccov3_R8/phy78_x0.001_lev01.bin
(PID.TID 0000.0001)  MDS_READ_FIELD: opening global file: ../../../input/eccov3_R8/phy78_x0.001_lev01.bin
(PID.TID 0000.0001)  MDS_READ_FIELD: opening global file: ../../../input/eccov3_R8/phy78_x0.004_lev01.bin
(PID.TID 0000.0001)  MDS_READ_FIELD: opening global file: ../../../input/eccov3_R8/phy78_x0.001_lev01.bin
(PID.TID 0000.0001)  MDS_READ_FIELD: opening global file: ../../../input/eccov3_R8/phy78_x0.001_lev01.bin
(PID.TID 0000.0001)  MDS_READ_FIELD: opening global file: ../../../input/eccov3_R8/phy78_x0.004_lev01.bin
(PID.TID 0000.0001)  MDS_READ_FIELD: opening global file: ../../../input/eccov3_R8/phy78_x0.001_lev01.bin
(PID.TID 0000.0001)  MDS_READ_FIELD: opening global file: ../../../input/eccov3_R8/phy78_x0.001_lev01.bin
(PID.TID 0000.0001)  MDS_READ_FIELD: opening global file: ../../../input/eccov3_R8/phy78_x0.001_lev01.bin
(PID.TID 0000.0001)  MDS_READ_FIELD: opening global file: ../../../input/eccov3_R8/phy78_x0.001_lev01.bin
(PID.TID 0000.0001)  MDS_READ_FIELD: opening global file: ../../../input/eccov3_R8/phy78_x0.001_lev01.bin
(PID.TID 0000.0001)  MDS_READ_FIELD: opening global file: ../../../input/eccov3_R8/phy78_x0.001_lev01.bin
(PID.TID 0000.0001)  MDS_READ_FIELD: opening global file: ../../../input/eccov3_R8/phy78_x0.001_lev01.bin
(PID.TID 0000.0001)  MDS_READ_FIELD: opening global file: ../../../input/eccov3_R8/phy78_x0.001_lev01.bin
(PID.TID 0000.0001)  MDS_READ_FIELD: opening global file: ../../../input/eccov3_R8/phy78_x0.001_lev01.bin
(PID.TID 0000.0001)  MDS_READ_FIELD: opening global file: ../../../input/eccov3_R8/phy78_x0.001_lev01.bin
(PID.TID 0000.0001)  MDS_READ_FIELD: opening global file: ../../../input/eccov3_R8/phy78_x0.001_lev01.bin
(PID.TID 0000.0001)  MDS_READ_FIELD: opening global file: ../../../input/eccov3_R8/phy78_x0.001_lev01.bin
(PID.TID 0000.0001)  MDS_READ_FIELD: opening global file: ../../../input/eccov3_R8/phy78_x0.001_lev01.bin
(PID.TID 0000.0001)  MDS_READ_FIELD: opening global file: ../../../input/eccov3_R8/phy78_x0.001_lev01.bin
(PID.TID 0000.0001)  MDS_READ_FIELD: opening global file: ../../../input/eccov3_R8/phy78_x0.001_lev01.bin
(PID.TID 0000.0001)  MDS_READ_FIELD: opening global file: ../../../input/eccov3_R8/phy78_x0.001_lev01.bin
(PID.TID 0000.0001)  MDS_READ_FIELD: opening global file: ../../../input/eccov3_R8/phy78_x0.001_lev01.bin
(PID.TID 0000.0001)  MDS_READ_FIELD: opening global file: ../../../input/eccov3_R8/phy78_x0.001_lev01.bin
(PID.TID 0000.0001)  MDS_READ_FIELD: opening global file: ../../../input/eccov3_R8/phy78_x0.001_lev01.bin
(PID.TID 0000.0001)  MDS_READ_FIELD: opening global file: ../../../input/eccov3_R8/phy78_x0.001_lev01.bin
(PID.TID 0000.0001)  MDS_READ_FIELD: opening global file: ../../../input/eccov3_R8/phy78_x0.001_lev01.bin
(PID.TID 0000.0001)  MDS_READ_FIELD: opening global file: /home/stephdut/Input/input_ecco/ecco_oasim_total_below_oneband_einm2d.bin
(PID.TID 0000.0001)  MDS_READ_FIELD: opening global file: /home/stephdut/Input/input_ecco/ecco_oasim_total_below_oneband_einm2d.bin
(PID.TID 0000.0001)  MDS_READ_FIELD: opening global file: /home/stephdut/Input/input_ecco/mahowald2009_solubile_current_smooth_oce_mth-2d.bin
(PID.TID 0000.0001)  MDS_READ_FIELD: opening global file: /home/stephdut/Input/input_ecco/mahowald2009_solubile_current_smooth_oce_mth-2d.bin
(PID.TID 0000.0001)  MDS_READ_FIELD: opening global file: ../../../input/eccov3/SIarea.bin
(PID.TID 0000.0001)  MDS_READ_FIELD: opening global file: ../../../input/eccov3/SIarea.bin
(PID.TID 0000.0001)  MDS_READ_FIELD: opening global file: ../../../input/eccov3/tren_speed_mth-2d.bin
(PID.TID 0000.0001)  MDS_READ_FIELD: opening global file: ../../../input/eccov3/tren_speed_mth-2d.bin
(PID.TID 0000.0001) // =======================================================
(PID.TID 0000.0001) // Model current state
(PID.TID 0000.0001) // =======================================================
(PID.TID 0000.0001) 
(PID.TID 0000.0001) // =======================================================
(PID.TID 0000.0001) // Begin MONITOR dynamic field statistics
(PID.TID 0000.0001) // =======================================================
(PID.TID 0000.0001) %MON time_tsnumber                =                     0
(PID.TID 0000.0001) %MON time_secondsf                =   0.0000000000000000E+00
(PID.TID 0000.0001) %MON dynstat_eta_max              =   0.0000000000000000E+00
(PID.TID 0000.0001) %MON dynstat_eta_min              =   0.0000000000000000E+00
(PID.TID 0000.0001) %MON dynstat_eta_mean             =   0.0000000000000000E+00
(PID.TID 0000.0001) %MON dynstat_eta_sd               =   0.0000000000000000E+00
(PID.TID 0000.0001) %MON dynstat_eta_del2             =   0.0000000000000000E+00
(PID.TID 0000.0001) %MON dynstat_uvel_max             =   7.5098115205764771E-01
(PID.TID 0000.0001) %MON dynstat_uvel_min             =  -8.5988894104957581E-01
(PID.TID 0000.0001) %MON dynstat_uvel_mean            =   2.3572816524444476E-03
(PID.TID 0000.0001) %MON dynstat_uvel_sd              =   2.2920832952052075E-02
(PID.TID 0000.0001) %MON dynstat_uvel_del2            =   2.5380623508417271E-05
(PID.TID 0000.0001) %MON dynstat_vvel_max             =   1.4433979988098145E+00
(PID.TID 0000.0001) %MON dynstat_vvel_min             =  -7.9056510329246521E-01
(PID.TID 0000.0001) %MON dynstat_vvel_mean            =  -1.9003223157283906E-05
(PID.TID 0000.0001) %MON dynstat_vvel_sd              =   1.1606396696779764E-02
(PID.TID 0000.0001) %MON dynstat_vvel_del2            =   2.3903080664409944E-05
(PID.TID 0000.0001) %MON dynstat_wvel_max             =   4.0098185531362457E-04
(PID.TID 0000.0001) %MON dynstat_wvel_min             =  -6.1701978098626037E-04
(PID.TID 0000.0001) %MON dynstat_wvel_mean            =   3.9780657816560744E-23
(PID.TID 0000.0001) %MON dynstat_wvel_sd              =   1.0036396664253446E-05
(PID.TID 0000.0001) %MON dynstat_wvel_del2            =   1.8497991102997157E-08
(PID.TID 0000.0001) %MON dynstat_theta_max            =   3.1759957313537598E+01
(PID.TID 0000.0001) %MON dynstat_theta_min            =  -2.6781991720199585E+00
(PID.TID 0000.0001) %MON dynstat_theta_mean           =   3.6072900423544030E+00
(PID.TID 0000.0001) %MON dynstat_theta_sd             =   4.4541205956314647E+00
(PID.TID 0000.0001) %MON dynstat_theta_del2           =   3.5727313459856381E-04
(PID.TID 0000.0001) %MON dynstat_salt_max             =   3.9536773681640625E+01
(PID.TID 0000.0001) %MON dynstat_salt_min             =   2.6413101196289062E+01
(PID.TID 0000.0001) %MON dynstat_salt_mean            =   3.4722225910308687E+01
(PID.TID 0000.0001) %MON dynstat_salt_sd              =   3.6521486169891076E-01
(PID.TID 0000.0001) %MON dynstat_salt_del2            =   6.8647712204606049E-05
(PID.TID 0000.0001) %MON dynstat_sst_max              =   3.1759957313537598E+01
(PID.TID 0000.0001) %MON dynstat_sst_min              =  -1.9927841424942017E+00
(PID.TID 0000.0001) %MON dynstat_sst_mean             =   1.9180627039434452E+01
(PID.TID 0000.0001) %MON dynstat_sst_sd               =   9.5507126256378854E+00
(PID.TID 0000.0001) %MON dynstat_sst_del2             =   2.1359256876322822E-03
(PID.TID 0000.0001) %MON dynstat_sss_max              =   3.9536773681640625E+01
(PID.TID 0000.0001) %MON dynstat_sss_min              =   2.6413101196289062E+01
(PID.TID 0000.0001) %MON dynstat_sss_mean             =   3.4862233940638127E+01
(PID.TID 0000.0001) %MON dynstat_sss_sd               =   1.0826450093342124E+00
(PID.TID 0000.0001) %MON dynstat_sss_del2             =   5.9710833084477015E-04
(PID.TID 0000.0001) %MON forcing_qnet_max             =   0.0000000000000000E+00
(PID.TID 0000.0001) %MON forcing_qnet_min             =   0.0000000000000000E+00
(PID.TID 0000.0001) %MON forcing_qnet_mean            =   0.0000000000000000E+00
(PID.TID 0000.0001) %MON forcing_qnet_sd              =   0.0000000000000000E+00
(PID.TID 0000.0001) %MON forcing_qnet_del2            =   0.0000000000000000E+00
(PID.TID 0000.0001) %MON forcing_qsw_max              =   0.0000000000000000E+00
(PID.TID 0000.0001) %MON forcing_qsw_min              =   0.0000000000000000E+00
(PID.TID 0000.0001) %MON forcing_qsw_mean             =   0.0000000000000000E+00
(PID.TID 0000.0001) %MON forcing_qsw_sd               =   0.0000000000000000E+00
(PID.TID 0000.0001) %MON forcing_qsw_del2             =   0.0000000000000000E+00
(PID.TID 0000.0001) %MON forcing_empmr_max            =   0.0000000000000000E+00
(PID.TID 0000.0001) %MON forcing_empmr_min            =   0.0000000000000000E+00
(PID.TID 0000.0001) %MON forcing_empmr_mean           =   0.0000000000000000E+00
(PID.TID 0000.0001) %MON forcing_empmr_sd             =   0.0000000000000000E+00
(PID.TID 0000.0001) %MON forcing_empmr_del2           =   0.0000000000000000E+00
(PID.TID 0000.0001) %MON forcing_fu_max               =   0.0000000000000000E+00
(PID.TID 0000.0001) %MON forcing_fu_min               =   0.0000000000000000E+00
(PID.TID 0000.0001) %MON forcing_fu_mean              =   0.0000000000000000E+00
(PID.TID 0000.0001) %MON forcing_fu_sd                =   0.0000000000000000E+00
(PID.TID 0000.0001) %MON forcing_fu_del2              =   0.0000000000000000E+00
(PID.TID 0000.0001) %MON forcing_fv_max               =   0.0000000000000000E+00
(PID.TID 0000.0001) %MON forcing_fv_min               =   0.0000000000000000E+00
(PID.TID 0000.0001) %MON forcing_fv_mean              =   0.0000000000000000E+00
(PID.TID 0000.0001) %MON forcing_fv_sd                =   0.0000000000000000E+00
(PID.TID 0000.0001) %MON forcing_fv_del2              =   0.0000000000000000E+00
(PID.TID 0000.0001) %MON advcfl_uvel_max              =   1.4092930500925430E-01
(PID.TID 0000.0001) %MON advcfl_vvel_max              =   1.4021454092399671E-01
(PID.TID 0000.0001) %MON advcfl_wvel_max              =   1.9247129055053980E-01
(PID.TID 0000.0001) %MON advcfl_W_hf_max              =   2.1653020186935726E-01
(PID.TID 0000.0001) %MON pe_b_mean                    =   0.0000000000000000E+00
(PID.TID 0000.0001) %MON ke_max                       =   8.2762730601178824E-01
(PID.TID 0000.0001) %MON ke_mean                      =   3.1922519158178876E-04
(PID.TID 0000.0001) %MON ke_vol                       =   1.3258927395735470E+18
(PID.TID 0000.0001) %MON vort_r_min                   =  -1.4668072202507861E-05
(PID.TID 0000.0001) %MON vort_r_max                   =   2.0065492707288839E-05
(PID.TID 0000.0001) %MON vort_a_mean                  =  -2.1443554588587620E-05
(PID.TID 0000.0001) %MON vort_a_sd                    =   7.3250404447070092E-05
(PID.TID 0000.0001) %MON vort_p_mean                  =  -2.3136237641927041E-05
(PID.TID 0000.0001) %MON vort_p_sd                    =   8.5528229257188847E-05
(PID.TID 0000.0001) %MON surfExpan_theta_mean         =  -2.8535364658049071E-08
(PID.TID 0000.0001) %MON surfExpan_salt_mean          =   6.2495878354352634E-09
(PID.TID 0000.0001) // =======================================================
(PID.TID 0000.0001) // End MONITOR dynamic field statistics
(PID.TID 0000.0001) // =======================================================
(PID.TID 0000.0001) // =======================================================
(PID.TID 0000.0001) // Begin MONITOR ptracer field statistics
(PID.TID 0000.0001) // =======================================================
(PID.TID 0000.0001) %MON trcstat_ptracer01_max        =   2.4045053710937500E+03
(PID.TID 0000.0001) %MON trcstat_ptracer01_min        =   1.8447468261718750E+03
(PID.TID 0000.0001) %MON trcstat_ptracer01_mean       =   2.2546511133210902E+03
(PID.TID 0000.0001) %MON trcstat_ptracer01_sd         =   7.8604066256245815E+01
(PID.TID 0000.0001) %MON trcstat_ptracer01_del2       =   3.9262003901801082E-03
(PID.TID 0000.0001) %MON trcstat_ptracer02_max        =   2.1473145484924316E+00
(PID.TID 0000.0001) %MON trcstat_ptracer02_min        =   0.0000000000000000E+00
(PID.TID 0000.0001) %MON trcstat_ptracer02_mean       =   1.7878254181650142E-03
(PID.TID 0000.0001) %MON trcstat_ptracer02_sd         =   1.7653973158591484E-02
(PID.TID 0000.0001) %MON trcstat_ptracer02_del2       =   2.9430656499239687E-05
(PID.TID 0000.0001) %MON trcstat_ptracer03_max        =   3.0563504695892334E+00
(PID.TID 0000.0001) %MON trcstat_ptracer03_min        =   0.0000000000000000E+00
(PID.TID 0000.0001) %MON trcstat_ptracer03_mean       =   5.7961331288018470E-03
(PID.TID 0000.0001) %MON trcstat_ptracer03_sd         =   2.4359042585841796E-02
(PID.TID 0000.0001) %MON trcstat_ptracer03_del2       =   2.8668420848971846E-05
(PID.TID 0000.0001) %MON trcstat_ptracer04_max        =   5.0805999755859375E+01
(PID.TID 0000.0001) %MON trcstat_ptracer04_min        =   0.0000000000000000E+00
(PID.TID 0000.0001) %MON trcstat_ptracer04_mean       =   3.1007748186856976E+01
(PID.TID 0000.0001) %MON trcstat_ptracer04_sd         =   9.0069814942232433E+00
(PID.TID 0000.0001) %MON trcstat_ptracer04_del2       =   4.1808295359022492E-04
(PID.TID 0000.0001) %MON trcstat_ptracer05_max        =   3.7955999374389648E+00
(PID.TID 0000.0001) %MON trcstat_ptracer05_min        =   1.8349999561905861E-02
(PID.TID 0000.0001) %MON trcstat_ptracer05_mean       =   2.1762246804590668E+00
(PID.TID 0000.0001) %MON trcstat_ptracer05_sd         =   6.4459510567978162E-01
(PID.TID 0000.0001) %MON trcstat_ptracer05_del2       =   3.0215703479517614E-05
(PID.TID 0000.0001) %MON trcstat_ptracer06_max        =   2.6071920776367188E+02
(PID.TID 0000.0001) %MON trcstat_ptracer06_min        =   2.6660001277923584E-01
(PID.TID 0000.0001) %MON trcstat_ptracer06_mean       =   9.0810285891869214E+01
(PID.TID 0000.0001) %MON trcstat_ptracer06_sd         =   5.2140692528741269E+01
(PID.TID 0000.0001) %MON trcstat_ptracer06_del2       =   1.0736370675107300E-03
(PID.TID 0000.0001) %MON trcstat_ptracer07_max        =   1.0973453754559159E-03
(PID.TID 0000.0001) %MON trcstat_ptracer07_min        =   8.5315150499809533E-08
(PID.TID 0000.0001) %MON trcstat_ptracer07_mean       =   6.2097937023548302E-04
(PID.TID 0000.0001) %MON trcstat_ptracer07_sd         =   1.7824495500005848E-04
(PID.TID 0000.0001) %MON trcstat_ptracer07_del2       =   5.9702043405947195E-08
(PID.TID 0000.0001) %MON trcstat_ptracer08_max        =   5.2150821685791016E+01
(PID.TID 0000.0001) %MON trcstat_ptracer08_min        =   0.0000000000000000E+00
(PID.TID 0000.0001) %MON trcstat_ptracer08_mean       =   2.2654830117271216E-01
(PID.TID 0000.0001) %MON trcstat_ptracer08_sd         =   1.3294410751238774E+00
(PID.TID 0000.0001) %MON trcstat_ptracer08_del2       =   1.2089004439327124E-03
(PID.TID 0000.0001) %MON trcstat_ptracer09_max        =   7.3542504310607910E+00
(PID.TID 0000.0001) %MON trcstat_ptracer09_min        =   0.0000000000000000E+00
(PID.TID 0000.0001) %MON trcstat_ptracer09_mean       =   3.0421231593559951E-02
(PID.TID 0000.0001) %MON trcstat_ptracer09_sd         =   1.7896393902940957E-01
(PID.TID 0000.0001) %MON trcstat_ptracer09_del2       =   1.6340293848548189E-04
(PID.TID 0000.0001) %MON trcstat_ptracer10_max        =   4.3459019064903259E-01
(PID.TID 0000.0001) %MON trcstat_ptracer10_min        =   0.0000000000000000E+00
(PID.TID 0000.0001) %MON trcstat_ptracer10_mean       =   1.8879025105832834E-03
(PID.TID 0000.0001) %MON trcstat_ptracer10_sd         =   1.1078675624033375E-02
(PID.TID 0000.0001) %MON trcstat_ptracer10_del2       =   1.0074170451943301E-05
(PID.TID 0000.0001) %MON trcstat_ptracer11_max        =   5.1011529285460711E-04
(PID.TID 0000.0001) %MON trcstat_ptracer11_min        =   0.0000000000000000E+00
(PID.TID 0000.0001) %MON trcstat_ptracer11_mean       =   1.9147509467272951E-06
(PID.TID 0000.0001) %MON trcstat_ptracer11_sd         =   1.1298617331297036E-05
(PID.TID 0000.0001) %MON trcstat_ptracer11_del2       =   1.0393917225635487E-08
(PID.TID 0000.0001) %MON trcstat_ptracer12_max        =   1.3374876708984375E+03
(PID.TID 0000.0001) %MON trcstat_ptracer12_min        =   9.8712036560755223E-05
(PID.TID 0000.0001) %MON trcstat_ptracer12_mean       =   1.6679800505718198E-01
(PID.TID 0000.0001) %MON trcstat_ptracer12_sd         =   2.3140507420659602E+00
(PID.TID 0000.0001) %MON trcstat_ptracer12_del2       =   9.0290015896466738E-04
(PID.TID 0000.0001) %MON trcstat_ptracer13_max        =   1.8887759399414062E+02
(PID.TID 0000.0001) %MON trcstat_ptracer13_min        =   1.3161638889869209E-05
(PID.TID 0000.0001) %MON trcstat_ptracer13_mean       =   2.2580230339504570E-02
(PID.TID 0000.0001) %MON trcstat_ptracer13_sd         =   3.2937017509847416E-01
(PID.TID 0000.0001) %MON trcstat_ptracer13_del2       =   1.2407798871005431E-04
(PID.TID 0000.0001) %MON trcstat_ptracer14_max        =   1.1147537231445312E+01
(PID.TID 0000.0001) %MON trcstat_ptracer14_min        =   8.2260032741032774E-07
(PID.TID 0000.0001) %MON trcstat_ptracer14_mean       =   1.3899874965366593E-03
(PID.TID 0000.0001) %MON trcstat_ptracer14_sd         =   1.9285430202733121E-02
(PID.TID 0000.0001) %MON trcstat_ptracer14_del2       =   7.5241677900337908E-06
(PID.TID 0000.0001) %MON trcstat_ptracer15_max        =   1.2251813507080078E+02
(PID.TID 0000.0001) %MON trcstat_ptracer15_min        =   2.0135115796904302E-10
(PID.TID 0000.0001) %MON trcstat_ptracer15_mean       =   1.3529984097408637E-01
(PID.TID 0000.0001) %MON trcstat_ptracer15_sd         =   3.9868839801938777E-01
(PID.TID 0000.0001) %MON trcstat_ptracer15_del2       =   2.6991399899127695E-04
(PID.TID 0000.0001) %MON trcstat_ptracer16_max        =   1.2462104670703411E-02
(PID.TID 0000.0001) %MON trcstat_ptracer16_min        =   8.2260454004057237E-10
(PID.TID 0000.0001) %MON trcstat_ptracer16_mean       =   1.4325415350334051E-06
(PID.TID 0000.0001) %MON trcstat_ptracer16_sd         =   2.1898173795242564E-05
(PID.TID 0000.0001) %MON trcstat_ptracer16_del2       =   8.0119603653321275E-09
(PID.TID 0000.0001) %MON trcstat_ptracer17_max        =   4.0100973510742188E+02
(PID.TID 0000.0001) %MON trcstat_ptracer17_min        =   3.7098484007014321E-11
(PID.TID 0000.0001) %MON trcstat_ptracer17_mean       =   2.2843515702326289E-01
(PID.TID 0000.0001) %MON trcstat_ptracer17_sd         =   1.0041813539550082E+00
(PID.TID 0000.0001) %MON trcstat_ptracer17_del2       =   1.5542139979837992E-03
(PID.TID 0000.0001) %MON trcstat_ptracer18_max        =   2.4566696777343750E+03
(PID.TID 0000.0001) %MON trcstat_ptracer18_min        =   2.1775778808593750E+03
(PID.TID 0000.0001) %MON trcstat_ptracer18_mean       =   2.3632510240441352E+03
(PID.TID 0000.0001) %MON trcstat_ptracer18_sd         =   4.2543179541816642E+01
(PID.TID 0000.0001) %MON trcstat_ptracer18_del2       =   1.7312321893748516E-03
(PID.TID 0000.0001) %MON trcstat_ptracer19_max        =   4.0677526855468750E+02
(PID.TID 0000.0001) %MON trcstat_ptracer19_min        =   3.1105408668518066E+00
(PID.TID 0000.0001) %MON trcstat_ptracer19_mean       =   1.7469074739563700E+02
(PID.TID 0000.0001) %MON trcstat_ptracer19_sd         =   6.2920692065089490E+01
(PID.TID 0000.0001) %MON trcstat_ptracer19_del2       =   2.8634443546817255E-03
(PID.TID 0000.0001) %MON trcstat_ptracer20_max        =   8.3083614706993103E-01
(PID.TID 0000.0001) %MON trcstat_ptracer20_min        =   0.0000000000000000E+00
(PID.TID 0000.0001) %MON trcstat_ptracer20_mean       =   1.1068510621796922E-03
(PID.TID 0000.0001) %MON trcstat_ptracer20_sd         =   9.5066171728477762E-03
(PID.TID 0000.0001) %MON trcstat_ptracer20_del2       =   9.8226151386868822E-06
(PID.TID 0000.0001) %MON trcstat_ptracer21_max        =   8.3083614706993103E-01
(PID.TID 0000.0001) %MON trcstat_ptracer21_min        =   0.0000000000000000E+00
(PID.TID 0000.0001) %MON trcstat_ptracer21_mean       =   1.1068510621796922E-03
(PID.TID 0000.0001) %MON trcstat_ptracer21_sd         =   9.5066171728477762E-03
(PID.TID 0000.0001) %MON trcstat_ptracer21_del2       =   9.8226151386868822E-06
(PID.TID 0000.0001) %MON trcstat_ptracer22_max        =   8.3083614706993103E-01
(PID.TID 0000.0001) %MON trcstat_ptracer22_min        =   0.0000000000000000E+00
(PID.TID 0000.0001) %MON trcstat_ptracer22_mean       =   1.1068510621796922E-03
(PID.TID 0000.0001) %MON trcstat_ptracer22_sd         =   9.5066171728477762E-03
(PID.TID 0000.0001) %MON trcstat_ptracer22_del2       =   9.8226151386868822E-06
(PID.TID 0000.0001) %MON trcstat_ptracer23_max        =   8.3083614706993103E-01
(PID.TID 0000.0001) %MON trcstat_ptracer23_min        =   0.0000000000000000E+00
(PID.TID 0000.0001) %MON trcstat_ptracer23_mean       =   1.1068510621796922E-03
(PID.TID 0000.0001) %MON trcstat_ptracer23_sd         =   9.5066171728477762E-03
(PID.TID 0000.0001) %MON trcstat_ptracer23_del2       =   9.8226151386868822E-06
(PID.TID 0000.0001) %MON trcstat_ptracer24_max        =   8.3083614706993103E-02
(PID.TID 0000.0001) %MON trcstat_ptracer24_min        =   0.0000000000000000E+00
(PID.TID 0000.0001) %MON trcstat_ptracer24_mean       =   1.1068510621797086E-04
(PID.TID 0000.0001) %MON trcstat_ptracer24_sd         =   9.5066171728479503E-04
(PID.TID 0000.0001) %MON trcstat_ptracer24_del2       =   9.8226151386869237E-07
(PID.TID 0000.0001) %MON trcstat_ptracer25_max        =   8.3083614706993103E-01
(PID.TID 0000.0001) %MON trcstat_ptracer25_min        =   0.0000000000000000E+00
(PID.TID 0000.0001) %MON trcstat_ptracer25_mean       =   1.1068510621796922E-03
(PID.TID 0000.0001) %MON trcstat_ptracer25_sd         =   9.5066171728477762E-03
(PID.TID 0000.0001) %MON trcstat_ptracer25_del2       =   9.8226151386868822E-06
(PID.TID 0000.0001) %MON trcstat_ptracer26_max        =   8.3083614706993103E-01
(PID.TID 0000.0001) %MON trcstat_ptracer26_min        =   0.0000000000000000E+00
(PID.TID 0000.0001) %MON trcstat_ptracer26_mean       =   1.1068510621796922E-03
(PID.TID 0000.0001) %MON trcstat_ptracer26_sd         =   9.5066171728477762E-03
(PID.TID 0000.0001) %MON trcstat_ptracer26_del2       =   9.8226151386868822E-06
(PID.TID 0000.0001) %MON trcstat_ptracer27_max        =   8.3083614706993103E-02
(PID.TID 0000.0001) %MON trcstat_ptracer27_min        =   0.0000000000000000E+00
(PID.TID 0000.0001) %MON trcstat_ptracer27_mean       =   1.1068510621797086E-04
(PID.TID 0000.0001) %MON trcstat_ptracer27_sd         =   9.5066171728479503E-04
(PID.TID 0000.0001) %MON trcstat_ptracer27_del2       =   9.8226151386869237E-07
(PID.TID 0000.0001) %MON trcstat_ptracer28_max        =   8.3083614706993103E-01
(PID.TID 0000.0001) %MON trcstat_ptracer28_min        =   0.0000000000000000E+00
(PID.TID 0000.0001) %MON trcstat_ptracer28_mean       =   1.1068510621796922E-03
(PID.TID 0000.0001) %MON trcstat_ptracer28_sd         =   9.5066171728477762E-03
(PID.TID 0000.0001) %MON trcstat_ptracer28_del2       =   9.8226151386868822E-06
(PID.TID 0000.0001) %MON trcstat_ptracer29_max        =   8.3083614706993103E-01
(PID.TID 0000.0001) %MON trcstat_ptracer29_min        =   0.0000000000000000E+00
(PID.TID 0000.0001) %MON trcstat_ptracer29_mean       =   1.1068510621796922E-03
(PID.TID 0000.0001) %MON trcstat_ptracer29_sd         =   9.5066171728477762E-03
(PID.TID 0000.0001) %MON trcstat_ptracer29_del2       =   9.8226151386868822E-06
(PID.TID 0000.0001) %MON trcstat_ptracer30_max        =   8.3083614706993103E-02
(PID.TID 0000.0001) %MON trcstat_ptracer30_min        =   0.0000000000000000E+00
(PID.TID 0000.0001) %MON trcstat_ptracer30_mean       =   1.1068510621797086E-04
(PID.TID 0000.0001) %MON trcstat_ptracer30_sd         =   9.5066171728479503E-04
(PID.TID 0000.0001) %MON trcstat_ptracer30_del2       =   9.8226151386869237E-07
(PID.TID 0000.0001) %MON trcstat_ptracer31_max        =   8.3083614706993103E-01
(PID.TID 0000.0001) %MON trcstat_ptracer31_min        =   0.0000000000000000E+00
(PID.TID 0000.0001) %MON trcstat_ptracer31_mean       =   1.1068510621796922E-03
(PID.TID 0000.0001) %MON trcstat_ptracer31_sd         =   9.5066171728477762E-03
(PID.TID 0000.0001) %MON trcstat_ptracer31_del2       =   9.8226151386868822E-06
(PID.TID 0000.0001) %MON trcstat_ptracer32_max        =   8.3083614706993103E-01
(PID.TID 0000.0001) %MON trcstat_ptracer32_min        =   0.0000000000000000E+00
(PID.TID 0000.0001) %MON trcstat_ptracer32_mean       =   1.1068510621796922E-03
(PID.TID 0000.0001) %MON trcstat_ptracer32_sd         =   9.5066171728477762E-03
(PID.TID 0000.0001) %MON trcstat_ptracer32_del2       =   9.8226151386868822E-06
(PID.TID 0000.0001) %MON trcstat_ptracer33_max        =   8.3083614706993103E-02
(PID.TID 0000.0001) %MON trcstat_ptracer33_min        =   0.0000000000000000E+00
(PID.TID 0000.0001) %MON trcstat_ptracer33_mean       =   1.1068510621797086E-04
(PID.TID 0000.0001) %MON trcstat_ptracer33_sd         =   9.5066171728479503E-04
(PID.TID 0000.0001) %MON trcstat_ptracer33_del2       =   9.8226151386869237E-07
(PID.TID 0000.0001) %MON trcstat_ptracer34_max        =   8.3083614706993103E-01
(PID.TID 0000.0001) %MON trcstat_ptracer34_min        =   0.0000000000000000E+00
(PID.TID 0000.0001) %MON trcstat_ptracer34_mean       =   1.1068510621796922E-03
(PID.TID 0000.0001) %MON trcstat_ptracer34_sd         =   9.5066171728477762E-03
(PID.TID 0000.0001) %MON trcstat_ptracer34_del2       =   9.8226151386868822E-06
(PID.TID 0000.0001) %MON trcstat_ptracer35_max        =   8.3083614706993103E-01
(PID.TID 0000.0001) %MON trcstat_ptracer35_min        =   0.0000000000000000E+00
(PID.TID 0000.0001) %MON trcstat_ptracer35_mean       =   1.1068510621796922E-03
(PID.TID 0000.0001) %MON trcstat_ptracer35_sd         =   9.5066171728477762E-03
(PID.TID 0000.0001) %MON trcstat_ptracer35_del2       =   9.8226151386868822E-06
(PID.TID 0000.0001) %MON trcstat_ptracer36_max        =   8.3083614706993103E-02
(PID.TID 0000.0001) %MON trcstat_ptracer36_min        =   0.0000000000000000E+00
(PID.TID 0000.0001) %MON trcstat_ptracer36_mean       =   1.1068510621797086E-04
(PID.TID 0000.0001) %MON trcstat_ptracer36_sd         =   9.5066171728479503E-04
(PID.TID 0000.0001) %MON trcstat_ptracer36_del2       =   9.8226151386869237E-07
(PID.TID 0000.0001) %MON trcstat_ptracer37_max        =   8.3083614706993103E-01
(PID.TID 0000.0001) %MON trcstat_ptracer37_min        =   0.0000000000000000E+00
(PID.TID 0000.0001) %MON trcstat_ptracer37_mean       =   1.1068510621796922E-03
(PID.TID 0000.0001) %MON trcstat_ptracer37_sd         =   9.5066171728477762E-03
(PID.TID 0000.0001) %MON trcstat_ptracer37_del2       =   9.8226151386868822E-06
(PID.TID 0000.0001) %MON trcstat_ptracer38_max        =   8.3083614706993103E-01
(PID.TID 0000.0001) %MON trcstat_ptracer38_min        =   0.0000000000000000E+00
(PID.TID 0000.0001) %MON trcstat_ptracer38_mean       =   1.1068510621796922E-03
(PID.TID 0000.0001) %MON trcstat_ptracer38_sd         =   9.5066171728477762E-03
(PID.TID 0000.0001) %MON trcstat_ptracer38_del2       =   9.8226151386868822E-06
(PID.TID 0000.0001) %MON trcstat_ptracer39_max        =   8.3083614706993103E-01
(PID.TID 0000.0001) %MON trcstat_ptracer39_min        =   0.0000000000000000E+00
(PID.TID 0000.0001) %MON trcstat_ptracer39_mean       =   1.1068510621796922E-03
(PID.TID 0000.0001) %MON trcstat_ptracer39_sd         =   9.5066171728477762E-03
(PID.TID 0000.0001) %MON trcstat_ptracer39_del2       =   9.8226151386868822E-06
(PID.TID 0000.0001) %MON trcstat_ptracer40_max        =   8.3083614706993103E-01
(PID.TID 0000.0001) %MON trcstat_ptracer40_min        =   0.0000000000000000E+00
(PID.TID 0000.0001) %MON trcstat_ptracer40_mean       =   1.1068510621796922E-03
(PID.TID 0000.0001) %MON trcstat_ptracer40_sd         =   9.5066171728477762E-03
(PID.TID 0000.0001) %MON trcstat_ptracer40_del2       =   9.8226151386868822E-06
(PID.TID 0000.0001) %MON trcstat_ptracer41_max        =   8.3083614706993103E-01
(PID.TID 0000.0001) %MON trcstat_ptracer41_min        =   0.0000000000000000E+00
(PID.TID 0000.0001) %MON trcstat_ptracer41_mean       =   1.1068510621796922E-03
(PID.TID 0000.0001) %MON trcstat_ptracer41_sd         =   9.5066171728477762E-03
(PID.TID 0000.0001) %MON trcstat_ptracer41_del2       =   9.8226151386868822E-06
(PID.TID 0000.0001) %MON trcstat_ptracer42_max        =   8.3083614706993103E-01
(PID.TID 0000.0001) %MON trcstat_ptracer42_min        =   0.0000000000000000E+00
(PID.TID 0000.0001) %MON trcstat_ptracer42_mean       =   1.1068510621796922E-03
(PID.TID 0000.0001) %MON trcstat_ptracer42_sd         =   9.5066171728477762E-03
(PID.TID 0000.0001) %MON trcstat_ptracer42_del2       =   9.8226151386868822E-06
(PID.TID 0000.0001) %MON trcstat_ptracer43_max        =   8.3083614706993103E-01
(PID.TID 0000.0001) %MON trcstat_ptracer43_min        =   0.0000000000000000E+00
(PID.TID 0000.0001) %MON trcstat_ptracer43_mean       =   1.1068510621796922E-03
(PID.TID 0000.0001) %MON trcstat_ptracer43_sd         =   9.5066171728477762E-03
(PID.TID 0000.0001) %MON trcstat_ptracer43_del2       =   9.8226151386868822E-06
(PID.TID 0000.0001) %MON trcstat_ptracer44_max        =   8.3083614706993103E-01
(PID.TID 0000.0001) %MON trcstat_ptracer44_min        =   0.0000000000000000E+00
(PID.TID 0000.0001) %MON trcstat_ptracer44_mean       =   1.1068510621796922E-03
(PID.TID 0000.0001) %MON trcstat_ptracer44_sd         =   9.5066171728477762E-03
(PID.TID 0000.0001) %MON trcstat_ptracer44_del2       =   9.8226151386868822E-06
(PID.TID 0000.0001) %MON trcstat_ptracer45_max        =   8.3083614706993103E-01
(PID.TID 0000.0001) %MON trcstat_ptracer45_min        =   0.0000000000000000E+00
(PID.TID 0000.0001) %MON trcstat_ptracer45_mean       =   1.1068510621796922E-03
(PID.TID 0000.0001) %MON trcstat_ptracer45_sd         =   9.5066171728477762E-03
(PID.TID 0000.0001) %MON trcstat_ptracer45_del2       =   9.8226151386868822E-06
(PID.TID 0000.0001) %MON trcstat_ptracer46_max        =   8.3083614706993103E-01
(PID.TID 0000.0001) %MON trcstat_ptracer46_min        =   0.0000000000000000E+00
(PID.TID 0000.0001) %MON trcstat_ptracer46_mean       =   1.1068510621796922E-03
(PID.TID 0000.0001) %MON trcstat_ptracer46_sd         =   9.5066171728477762E-03
(PID.TID 0000.0001) %MON trcstat_ptracer46_del2       =   9.8226151386868822E-06
(PID.TID 0000.0001) %MON trcstat_ptracer47_max        =   8.3083614706993103E-01
(PID.TID 0000.0001) %MON trcstat_ptracer47_min        =   0.0000000000000000E+00
(PID.TID 0000.0001) %MON trcstat_ptracer47_mean       =   1.1068510621796922E-03
(PID.TID 0000.0001) %MON trcstat_ptracer47_sd         =   9.5066171728477762E-03
(PID.TID 0000.0001) %MON trcstat_ptracer47_del2       =   9.8226151386868822E-06
(PID.TID 0000.0001) %MON trcstat_ptracer48_max        =   8.3083614706993103E-01
(PID.TID 0000.0001) %MON trcstat_ptracer48_min        =   0.0000000000000000E+00
(PID.TID 0000.0001) %MON trcstat_ptracer48_mean       =   1.1068510621796922E-03
(PID.TID 0000.0001) %MON trcstat_ptracer48_sd         =   9.5066171728477762E-03
(PID.TID 0000.0001) %MON trcstat_ptracer48_del2       =   9.8226151386868822E-06
(PID.TID 0000.0001) %MON trcstat_ptracer49_max        =   8.3083614706993103E-01
(PID.TID 0000.0001) %MON trcstat_ptracer49_min        =   0.0000000000000000E+00
(PID.TID 0000.0001) %MON trcstat_ptracer49_mean       =   1.1068510621796922E-03
(PID.TID 0000.0001) %MON trcstat_ptracer49_sd         =   9.5066171728477762E-03
(PID.TID 0000.0001) %MON trcstat_ptracer49_del2       =   9.8226151386868822E-06
(PID.TID 0000.0001) %MON trcstat_ptracer50_max        =   8.3083614706993103E-01
(PID.TID 0000.0001) %MON trcstat_ptracer50_min        =   0.0000000000000000E+00
(PID.TID 0000.0001) %MON trcstat_ptracer50_mean       =   1.1068510621796922E-03
(PID.TID 0000.0001) %MON trcstat_ptracer50_sd         =   9.5066171728477762E-03
(PID.TID 0000.0001) %MON trcstat_ptracer50_del2       =   9.8226151386868822E-06
(PID.TID 0000.0001) %MON trcstat_ptracer51_max        =   8.3083614706993103E-01
(PID.TID 0000.0001) %MON trcstat_ptracer51_min        =   0.0000000000000000E+00
(PID.TID 0000.0001) %MON trcstat_ptracer51_mean       =   1.1068510621796922E-03
(PID.TID 0000.0001) %MON trcstat_ptracer51_sd         =   9.5066171728477762E-03
(PID.TID 0000.0001) %MON trcstat_ptracer51_del2       =   9.8226151386868822E-06
(PID.TID 0000.0001) %MON trcstat_ptracer52_max        =   8.3083614706993103E-01
(PID.TID 0000.0001) %MON trcstat_ptracer52_min        =   0.0000000000000000E+00
(PID.TID 0000.0001) %MON trcstat_ptracer52_mean       =   1.1068510621796922E-03
(PID.TID 0000.0001) %MON trcstat_ptracer52_sd         =   9.5066171728477762E-03
(PID.TID 0000.0001) %MON trcstat_ptracer52_del2       =   9.8226151386868822E-06
(PID.TID 0000.0001) %MON trcstat_ptracer53_max        =   8.3083614706993103E-01
(PID.TID 0000.0001) %MON trcstat_ptracer53_min        =   0.0000000000000000E+00
(PID.TID 0000.0001) %MON trcstat_ptracer53_mean       =   1.1068510621796922E-03
(PID.TID 0000.0001) %MON trcstat_ptracer53_sd         =   9.5066171728477762E-03
(PID.TID 0000.0001) %MON trcstat_ptracer53_del2       =   9.8226151386868822E-06
(PID.TID 0000.0001) %MON trcstat_ptracer54_max        =   8.3083614706993103E-01
(PID.TID 0000.0001) %MON trcstat_ptracer54_min        =   0.0000000000000000E+00
(PID.TID 0000.0001) %MON trcstat_ptracer54_mean       =   1.1068510621796922E-03
(PID.TID 0000.0001) %MON trcstat_ptracer54_sd         =   9.5066171728477762E-03
(PID.TID 0000.0001) %MON trcstat_ptracer54_del2       =   9.8226151386868822E-06
(PID.TID 0000.0001) %MON trcstat_ptracer55_max        =   8.3083614706993103E-01
(PID.TID 0000.0001) %MON trcstat_ptracer55_min        =   0.0000000000000000E+00
(PID.TID 0000.0001) %MON trcstat_ptracer55_mean       =   1.1068510621796922E-03
(PID.TID 0000.0001) %MON trcstat_ptracer55_sd         =   9.5066171728477762E-03
(PID.TID 0000.0001) %MON trcstat_ptracer55_del2       =   9.8226151386868822E-06
(PID.TID 0000.0001) %MON trcstat_ptracer56_max        =   8.3083614706993103E-01
(PID.TID 0000.0001) %MON trcstat_ptracer56_min        =   0.0000000000000000E+00
(PID.TID 0000.0001) %MON trcstat_ptracer56_mean       =   1.1068510621796922E-03
(PID.TID 0000.0001) %MON trcstat_ptracer56_sd         =   9.5066171728477762E-03
(PID.TID 0000.0001) %MON trcstat_ptracer56_del2       =   9.8226151386868822E-06
(PID.TID 0000.0001) %MON trcstat_ptracer57_max        =   8.3083614706993103E-01
(PID.TID 0000.0001) %MON trcstat_ptracer57_min        =   0.0000000000000000E+00
(PID.TID 0000.0001) %MON trcstat_ptracer57_mean       =   1.1068510621796922E-03
(PID.TID 0000.0001) %MON trcstat_ptracer57_sd         =   9.5066171728477762E-03
(PID.TID 0000.0001) %MON trcstat_ptracer57_del2       =   9.8226151386868822E-06
(PID.TID 0000.0001) %MON trcstat_ptracer58_max        =   1.1077815294265747E-01
(PID.TID 0000.0001) %MON trcstat_ptracer58_min        =   0.0000000000000000E+00
(PID.TID 0000.0001) %MON trcstat_ptracer58_mean       =   1.4758014162396041E-04
(PID.TID 0000.0001) %MON trcstat_ptracer58_sd         =   1.2675489563797270E-03
(PID.TID 0000.0001) %MON trcstat_ptracer58_del2       =   1.3096820184915685E-06
(PID.TID 0000.0001) %MON trcstat_ptracer59_max        =   1.1077815294265747E-01
(PID.TID 0000.0001) %MON trcstat_ptracer59_min        =   0.0000000000000000E+00
(PID.TID 0000.0001) %MON trcstat_ptracer59_mean       =   1.4758014162396041E-04
(PID.TID 0000.0001) %MON trcstat_ptracer59_sd         =   1.2675489563797270E-03
(PID.TID 0000.0001) %MON trcstat_ptracer59_del2       =   1.3096820184915685E-06
(PID.TID 0000.0001) %MON trcstat_ptracer60_max        =   1.1077815294265747E-01
(PID.TID 0000.0001) %MON trcstat_ptracer60_min        =   0.0000000000000000E+00
(PID.TID 0000.0001) %MON trcstat_ptracer60_mean       =   1.4758014162396041E-04
(PID.TID 0000.0001) %MON trcstat_ptracer60_sd         =   1.2675489563797270E-03
(PID.TID 0000.0001) %MON trcstat_ptracer60_del2       =   1.3096820184915685E-06
(PID.TID 0000.0001) %MON trcstat_ptracer61_max        =   1.1077815294265747E-01
(PID.TID 0000.0001) %MON trcstat_ptracer61_min        =   0.0000000000000000E+00
(PID.TID 0000.0001) %MON trcstat_ptracer61_mean       =   1.4758014162396041E-04
(PID.TID 0000.0001) %MON trcstat_ptracer61_sd         =   1.2675489563797270E-03
(PID.TID 0000.0001) %MON trcstat_ptracer61_del2       =   1.3096820184915685E-06
(PID.TID 0000.0001) %MON trcstat_ptracer62_max        =   2.7694538235664368E-02
(PID.TID 0000.0001) %MON trcstat_ptracer62_min        =   0.0000000000000000E+00
(PID.TID 0000.0001) %MON trcstat_ptracer62_mean       =   3.6895035405990102E-05
(PID.TID 0000.0001) %MON trcstat_ptracer62_sd         =   3.1688723909493175E-04
(PID.TID 0000.0001) %MON trcstat_ptracer62_del2       =   3.2742050462289213E-07
(PID.TID 0000.0001) %MON trcstat_ptracer63_max        =   1.1077815294265747E-01
(PID.TID 0000.0001) %MON trcstat_ptracer63_min        =   0.0000000000000000E+00
(PID.TID 0000.0001) %MON trcstat_ptracer63_mean       =   1.4758014162396041E-04
(PID.TID 0000.0001) %MON trcstat_ptracer63_sd         =   1.2675489563797270E-03
(PID.TID 0000.0001) %MON trcstat_ptracer63_del2       =   1.3096820184915685E-06
(PID.TID 0000.0001) %MON trcstat_ptracer64_max        =   1.1077815294265747E-01
(PID.TID 0000.0001) %MON trcstat_ptracer64_min        =   0.0000000000000000E+00
(PID.TID 0000.0001) %MON trcstat_ptracer64_mean       =   1.4758014162396041E-04
(PID.TID 0000.0001) %MON trcstat_ptracer64_sd         =   1.2675489563797270E-03
(PID.TID 0000.0001) %MON trcstat_ptracer64_del2       =   1.3096820184915685E-06
(PID.TID 0000.0001) %MON trcstat_ptracer65_max        =   2.7694538235664368E-02
(PID.TID 0000.0001) %MON trcstat_ptracer65_min        =   0.0000000000000000E+00
(PID.TID 0000.0001) %MON trcstat_ptracer65_mean       =   3.6895035405990102E-05
(PID.TID 0000.0001) %MON trcstat_ptracer65_sd         =   3.1688723909493175E-04
(PID.TID 0000.0001) %MON trcstat_ptracer65_del2       =   3.2742050462289213E-07
(PID.TID 0000.0001) %MON trcstat_ptracer66_max        =   1.1077815294265747E-01
(PID.TID 0000.0001) %MON trcstat_ptracer66_min        =   0.0000000000000000E+00
(PID.TID 0000.0001) %MON trcstat_ptracer66_mean       =   1.4758014162396041E-04
(PID.TID 0000.0001) %MON trcstat_ptracer66_sd         =   1.2675489563797270E-03
(PID.TID 0000.0001) %MON trcstat_ptracer66_del2       =   1.3096820184915685E-06
(PID.TID 0000.0001) %MON trcstat_ptracer67_max        =   1.1077815294265747E-01
(PID.TID 0000.0001) %MON trcstat_ptracer67_min        =   0.0000000000000000E+00
(PID.TID 0000.0001) %MON trcstat_ptracer67_mean       =   1.4758014162396041E-04
(PID.TID 0000.0001) %MON trcstat_ptracer67_sd         =   1.2675489563797270E-03
(PID.TID 0000.0001) %MON trcstat_ptracer67_del2       =   1.3096820184915685E-06
(PID.TID 0000.0001) %MON trcstat_ptracer68_max        =   2.7694538235664368E-02
(PID.TID 0000.0001) %MON trcstat_ptracer68_min        =   0.0000000000000000E+00
(PID.TID 0000.0001) %MON trcstat_ptracer68_mean       =   3.6895035405990102E-05
(PID.TID 0000.0001) %MON trcstat_ptracer68_sd         =   3.1688723909493175E-04
(PID.TID 0000.0001) %MON trcstat_ptracer68_del2       =   3.2742050462289213E-07
(PID.TID 0000.0001) %MON trcstat_ptracer69_max        =   1.1077815294265747E-01
(PID.TID 0000.0001) %MON trcstat_ptracer69_min        =   0.0000000000000000E+00
(PID.TID 0000.0001) %MON trcstat_ptracer69_mean       =   1.4758014162396041E-04
(PID.TID 0000.0001) %MON trcstat_ptracer69_sd         =   1.2675489563797270E-03
(PID.TID 0000.0001) %MON trcstat_ptracer69_del2       =   1.3096820184915685E-06
(PID.TID 0000.0001) %MON trcstat_ptracer70_max        =   1.1077815294265747E-01
(PID.TID 0000.0001) %MON trcstat_ptracer70_min        =   0.0000000000000000E+00
(PID.TID 0000.0001) %MON trcstat_ptracer70_mean       =   1.4758014162396041E-04
(PID.TID 0000.0001) %MON trcstat_ptracer70_sd         =   1.2675489563797270E-03
(PID.TID 0000.0001) %MON trcstat_ptracer70_del2       =   1.3096820184915685E-06
(PID.TID 0000.0001) %MON trcstat_ptracer71_max        =   2.7694538235664368E-02
(PID.TID 0000.0001) %MON trcstat_ptracer71_min        =   0.0000000000000000E+00
(PID.TID 0000.0001) %MON trcstat_ptracer71_mean       =   3.6895035405990102E-05
(PID.TID 0000.0001) %MON trcstat_ptracer71_sd         =   3.1688723909493175E-04
(PID.TID 0000.0001) %MON trcstat_ptracer71_del2       =   3.2742050462289213E-07
(PID.TID 0000.0001) %MON trcstat_ptracer72_max        =   1.1077815294265747E-01
(PID.TID 0000.0001) %MON trcstat_ptracer72_min        =   0.0000000000000000E+00
(PID.TID 0000.0001) %MON trcstat_ptracer72_mean       =   1.4758014162396041E-04
(PID.TID 0000.0001) %MON trcstat_ptracer72_sd         =   1.2675489563797270E-03
(PID.TID 0000.0001) %MON trcstat_ptracer72_del2       =   1.3096820184915685E-06
(PID.TID 0000.0001) %MON trcstat_ptracer73_max        =   1.1077815294265747E-01
(PID.TID 0000.0001) %MON trcstat_ptracer73_min        =   0.0000000000000000E+00
(PID.TID 0000.0001) %MON trcstat_ptracer73_mean       =   1.4758014162396041E-04
(PID.TID 0000.0001) %MON trcstat_ptracer73_sd         =   1.2675489563797270E-03
(PID.TID 0000.0001) %MON trcstat_ptracer73_del2       =   1.3096820184915685E-06
(PID.TID 0000.0001) %MON trcstat_ptracer74_max        =   2.7694538235664368E-02
(PID.TID 0000.0001) %MON trcstat_ptracer74_min        =   0.0000000000000000E+00
(PID.TID 0000.0001) %MON trcstat_ptracer74_mean       =   3.6895035405990102E-05
(PID.TID 0000.0001) %MON trcstat_ptracer74_sd         =   3.1688723909493175E-04
(PID.TID 0000.0001) %MON trcstat_ptracer74_del2       =   3.2742050462289213E-07
(PID.TID 0000.0001) %MON trcstat_ptracer75_max        =   1.1077815294265747E-01
(PID.TID 0000.0001) %MON trcstat_ptracer75_min        =   0.0000000000000000E+00
(PID.TID 0000.0001) %MON trcstat_ptracer75_mean       =   1.4758014162396041E-04
(PID.TID 0000.0001) %MON trcstat_ptracer75_sd         =   1.2675489563797270E-03
(PID.TID 0000.0001) %MON trcstat_ptracer75_del2       =   1.3096820184915685E-06
(PID.TID 0000.0001) %MON trcstat_ptracer76_max        =   1.1077815294265747E-01
(PID.TID 0000.0001) %MON trcstat_ptracer76_min        =   0.0000000000000000E+00
(PID.TID 0000.0001) %MON trcstat_ptracer76_mean       =   1.4758014162396041E-04
(PID.TID 0000.0001) %MON trcstat_ptracer76_sd         =   1.2675489563797270E-03
(PID.TID 0000.0001) %MON trcstat_ptracer76_del2       =   1.3096820184915685E-06
(PID.TID 0000.0001) %MON trcstat_ptracer77_max        =   1.1077815294265747E-01
(PID.TID 0000.0001) %MON trcstat_ptracer77_min        =   0.0000000000000000E+00
(PID.TID 0000.0001) %MON trcstat_ptracer77_mean       =   1.4758014162396041E-04
(PID.TID 0000.0001) %MON trcstat_ptracer77_sd         =   1.2675489563797270E-03
(PID.TID 0000.0001) %MON trcstat_ptracer77_del2       =   1.3096820184915685E-06
(PID.TID 0000.0001) %MON trcstat_ptracer78_max        =   1.1077815294265747E-01
(PID.TID 0000.0001) %MON trcstat_ptracer78_min        =   0.0000000000000000E+00
(PID.TID 0000.0001) %MON trcstat_ptracer78_mean       =   1.4758014162396041E-04
(PID.TID 0000.0001) %MON trcstat_ptracer78_sd         =   1.2675489563797270E-03
(PID.TID 0000.0001) %MON trcstat_ptracer78_del2       =   1.3096820184915685E-06
(PID.TID 0000.0001) %MON trcstat_ptracer79_max        =   1.1077815294265747E-01
(PID.TID 0000.0001) %MON trcstat_ptracer79_min        =   0.0000000000000000E+00
(PID.TID 0000.0001) %MON trcstat_ptracer79_mean       =   1.4758014162396041E-04
(PID.TID 0000.0001) %MON trcstat_ptracer79_sd         =   1.2675489563797270E-03
(PID.TID 0000.0001) %MON trcstat_ptracer79_del2       =   1.3096820184915685E-06
(PID.TID 0000.0001) %MON trcstat_ptracer80_max        =   1.1077815294265747E-01
(PID.TID 0000.0001) %MON trcstat_ptracer80_min        =   0.0000000000000000E+00
(PID.TID 0000.0001) %MON trcstat_ptracer80_mean       =   1.4758014162396041E-04
(PID.TID 0000.0001) %MON trcstat_ptracer80_sd         =   1.2675489563797270E-03
(PID.TID 0000.0001) %MON trcstat_ptracer80_del2       =   1.3096820184915685E-06
(PID.TID 0000.0001) %MON trcstat_ptracer81_max        =   1.1077815294265747E-01
(PID.TID 0000.0001) %MON trcstat_ptracer81_min        =   0.0000000000000000E+00
(PID.TID 0000.0001) %MON trcstat_ptracer81_mean       =   1.4758014162396041E-04
(PID.TID 0000.0001) %MON trcstat_ptracer81_sd         =   1.2675489563797270E-03
(PID.TID 0000.0001) %MON trcstat_ptracer81_del2       =   1.3096820184915685E-06
(PID.TID 0000.0001) %MON trcstat_ptracer82_max        =   1.1077815294265747E-01
(PID.TID 0000.0001) %MON trcstat_ptracer82_min        =   0.0000000000000000E+00
(PID.TID 0000.0001) %MON trcstat_ptracer82_mean       =   1.4758014162396041E-04
(PID.TID 0000.0001) %MON trcstat_ptracer82_sd         =   1.2675489563797270E-03
(PID.TID 0000.0001) %MON trcstat_ptracer82_del2       =   1.3096820184915685E-06
(PID.TID 0000.0001) %MON trcstat_ptracer83_max        =   1.1077815294265747E-01
(PID.TID 0000.0001) %MON trcstat_ptracer83_min        =   0.0000000000000000E+00
(PID.TID 0000.0001) %MON trcstat_ptracer83_mean       =   1.4758014162396041E-04
(PID.TID 0000.0001) %MON trcstat_ptracer83_sd         =   1.2675489563797270E-03
(PID.TID 0000.0001) %MON trcstat_ptracer83_del2       =   1.3096820184915685E-06
(PID.TID 0000.0001) %MON trcstat_ptracer84_max        =   1.1077815294265747E-01
(PID.TID 0000.0001) %MON trcstat_ptracer84_min        =   0.0000000000000000E+00
(PID.TID 0000.0001) %MON trcstat_ptracer84_mean       =   1.4758014162396041E-04
(PID.TID 0000.0001) %MON trcstat_ptracer84_sd         =   1.2675489563797270E-03
(PID.TID 0000.0001) %MON trcstat_ptracer84_del2       =   1.3096820184915685E-06
(PID.TID 0000.0001) %MON trcstat_ptracer85_max        =   1.1077815294265747E-01
(PID.TID 0000.0001) %MON trcstat_ptracer85_min        =   0.0000000000000000E+00
(PID.TID 0000.0001) %MON trcstat_ptracer85_mean       =   1.4758014162396041E-04
(PID.TID 0000.0001) %MON trcstat_ptracer85_sd         =   1.2675489563797270E-03
(PID.TID 0000.0001) %MON trcstat_ptracer85_del2       =   1.3096820184915685E-06
(PID.TID 0000.0001) %MON trcstat_ptracer86_max        =   1.1077815294265747E-01
(PID.TID 0000.0001) %MON trcstat_ptracer86_min        =   0.0000000000000000E+00
(PID.TID 0000.0001) %MON trcstat_ptracer86_mean       =   1.4758014162396041E-04
(PID.TID 0000.0001) %MON trcstat_ptracer86_sd         =   1.2675489563797270E-03
(PID.TID 0000.0001) %MON trcstat_ptracer86_del2       =   1.3096820184915685E-06
(PID.TID 0000.0001) %MON trcstat_ptracer87_max        =   1.1077815294265747E-01
(PID.TID 0000.0001) %MON trcstat_ptracer87_min        =   0.0000000000000000E+00
(PID.TID 0000.0001) %MON trcstat_ptracer87_mean       =   1.4758014162396041E-04
(PID.TID 0000.0001) %MON trcstat_ptracer87_sd         =   1.2675489563797270E-03
(PID.TID 0000.0001) %MON trcstat_ptracer87_del2       =   1.3096820184915685E-06
(PID.TID 0000.0001) %MON trcstat_ptracer88_max        =   1.1077815294265747E-01
(PID.TID 0000.0001) %MON trcstat_ptracer88_min        =   0.0000000000000000E+00
(PID.TID 0000.0001) %MON trcstat_ptracer88_mean       =   1.4758014162396041E-04
(PID.TID 0000.0001) %MON trcstat_ptracer88_sd         =   1.2675489563797270E-03
(PID.TID 0000.0001) %MON trcstat_ptracer88_del2       =   1.3096820184915685E-06
(PID.TID 0000.0001) %MON trcstat_ptracer89_max        =   1.1077815294265747E-01
(PID.TID 0000.0001) %MON trcstat_ptracer89_min        =   0.0000000000000000E+00
(PID.TID 0000.0001) %MON trcstat_ptracer89_mean       =   1.4758014162396041E-04
(PID.TID 0000.0001) %MON trcstat_ptracer89_sd         =   1.2675489563797270E-03
(PID.TID 0000.0001) %MON trcstat_ptracer89_del2       =   1.3096820184915685E-06
(PID.TID 0000.0001) %MON trcstat_ptracer90_max        =   1.1077815294265747E-01
(PID.TID 0000.0001) %MON trcstat_ptracer90_min        =   0.0000000000000000E+00
(PID.TID 0000.0001) %MON trcstat_ptracer90_mean       =   1.4758014162396041E-04
(PID.TID 0000.0001) %MON trcstat_ptracer90_sd         =   1.2675489563797270E-03
(PID.TID 0000.0001) %MON trcstat_ptracer90_del2       =   1.3096820184915685E-06
(PID.TID 0000.0001) %MON trcstat_ptracer91_max        =   1.1077815294265747E-01
(PID.TID 0000.0001) %MON trcstat_ptracer91_min        =   0.0000000000000000E+00
(PID.TID 0000.0001) %MON trcstat_ptracer91_mean       =   1.4758014162396041E-04
(PID.TID 0000.0001) %MON trcstat_ptracer91_sd         =   1.2675489563797270E-03
(PID.TID 0000.0001) %MON trcstat_ptracer91_del2       =   1.3096820184915685E-06
(PID.TID 0000.0001) %MON trcstat_ptracer92_max        =   1.1077815294265747E-01
(PID.TID 0000.0001) %MON trcstat_ptracer92_min        =   0.0000000000000000E+00
(PID.TID 0000.0001) %MON trcstat_ptracer92_mean       =   1.4758014162396041E-04
(PID.TID 0000.0001) %MON trcstat_ptracer92_sd         =   1.2675489563797270E-03
(PID.TID 0000.0001) %MON trcstat_ptracer92_del2       =   1.3096820184915685E-06
(PID.TID 0000.0001) %MON trcstat_ptracer93_max        =   1.1077815294265747E-01
(PID.TID 0000.0001) %MON trcstat_ptracer93_min        =   0.0000000000000000E+00
(PID.TID 0000.0001) %MON trcstat_ptracer93_mean       =   1.4758014162396041E-04
(PID.TID 0000.0001) %MON trcstat_ptracer93_sd         =   1.2675489563797270E-03
(PID.TID 0000.0001) %MON trcstat_ptracer93_del2       =   1.3096820184915685E-06
(PID.TID 0000.0001) %MON trcstat_ptracer94_max        =   1.1077815294265747E-01
(PID.TID 0000.0001) %MON trcstat_ptracer94_min        =   0.0000000000000000E+00
(PID.TID 0000.0001) %MON trcstat_ptracer94_mean       =   1.4758014162396041E-04
(PID.TID 0000.0001) %MON trcstat_ptracer94_sd         =   1.2675489563797270E-03
(PID.TID 0000.0001) %MON trcstat_ptracer94_del2       =   1.3096820184915685E-06
(PID.TID 0000.0001) %MON trcstat_ptracer95_max        =   1.1077815294265747E-01
(PID.TID 0000.0001) %MON trcstat_ptracer95_min        =   0.0000000000000000E+00
(PID.TID 0000.0001) %MON trcstat_ptracer95_mean       =   1.4758014162396041E-04
(PID.TID 0000.0001) %MON trcstat_ptracer95_sd         =   1.2675489563797270E-03
(PID.TID 0000.0001) %MON trcstat_ptracer95_del2       =   1.3096820184915685E-06
(PID.TID 0000.0001) %MON trcstat_ptracer96_max        =   6.9236345589160919E-03
(PID.TID 0000.0001) %MON trcstat_ptracer96_min        =   0.0000000000000000E+00
(PID.TID 0000.0001) %MON trcstat_ptracer96_mean       =   9.2237588514975256E-06
(PID.TID 0000.0001) %MON trcstat_ptracer96_sd         =   7.9221809773732938E-05
(PID.TID 0000.0001) %MON trcstat_ptracer96_del2       =   8.1855126155723031E-08
(PID.TID 0000.0001) %MON trcstat_ptracer97_max        =   6.9236345589160919E-03
(PID.TID 0000.0001) %MON trcstat_ptracer97_min        =   0.0000000000000000E+00
(PID.TID 0000.0001) %MON trcstat_ptracer97_mean       =   9.2237588514975256E-06
(PID.TID 0000.0001) %MON trcstat_ptracer97_sd         =   7.9221809773732938E-05
(PID.TID 0000.0001) %MON trcstat_ptracer97_del2       =   8.1855126155723031E-08
(PID.TID 0000.0001) %MON trcstat_ptracer98_max        =   6.9236345589160919E-03
(PID.TID 0000.0001) %MON trcstat_ptracer98_min        =   0.0000000000000000E+00
(PID.TID 0000.0001) %MON trcstat_ptracer98_mean       =   9.2237588514975256E-06
(PID.TID 0000.0001) %MON trcstat_ptracer98_sd         =   7.9221809773732938E-05
(PID.TID 0000.0001) %MON trcstat_ptracer98_del2       =   8.1855126155723031E-08
(PID.TID 0000.0001) %MON trcstat_ptracer99_max        =   6.9236345589160919E-03
(PID.TID 0000.0001) %MON trcstat_ptracer99_min        =   0.0000000000000000E+00
(PID.TID 0000.0001) %MON trcstat_ptracer99_mean       =   9.2237588514975256E-06
(PID.TID 0000.0001) %MON trcstat_ptracer99_sd         =   7.9221809773732938E-05
(PID.TID 0000.0001) %MON trcstat_ptracer99_del2       =   8.1855126155723031E-08
(PID.TID 0000.0001) %MON trcstat_ptracer0a_max        =   6.9236345589160928E-04
(PID.TID 0000.0001) %MON trcstat_ptracer0a_min        =   0.0000000000000000E+00
(PID.TID 0000.0001) %MON trcstat_ptracer0a_mean       =   9.2237588514975588E-07
(PID.TID 0000.0001) %MON trcstat_ptracer0a_sd         =   7.9221809773731731E-06
(PID.TID 0000.0001) %MON trcstat_ptracer0a_del2       =   8.1855126155723415E-09
(PID.TID 0000.0001) %MON trcstat_ptracer0b_max        =   6.9236345589160919E-03
(PID.TID 0000.0001) %MON trcstat_ptracer0b_min        =   0.0000000000000000E+00
(PID.TID 0000.0001) %MON trcstat_ptracer0b_mean       =   9.2237588514975256E-06
(PID.TID 0000.0001) %MON trcstat_ptracer0b_sd         =   7.9221809773732938E-05
(PID.TID 0000.0001) %MON trcstat_ptracer0b_del2       =   8.1855126155723031E-08
(PID.TID 0000.0001) %MON trcstat_ptracer0c_max        =   6.9236345589160919E-03
(PID.TID 0000.0001) %MON trcstat_ptracer0c_min        =   0.0000000000000000E+00
(PID.TID 0000.0001) %MON trcstat_ptracer0c_mean       =   9.2237588514975256E-06
(PID.TID 0000.0001) %MON trcstat_ptracer0c_sd         =   7.9221809773732938E-05
(PID.TID 0000.0001) %MON trcstat_ptracer0c_del2       =   8.1855126155723031E-08
(PID.TID 0000.0001) %MON trcstat_ptracer0d_max        =   6.9236345589160928E-04
(PID.TID 0000.0001) %MON trcstat_ptracer0d_min        =   0.0000000000000000E+00
(PID.TID 0000.0001) %MON trcstat_ptracer0d_mean       =   9.2237588514975588E-07
(PID.TID 0000.0001) %MON trcstat_ptracer0d_sd         =   7.9221809773731731E-06
(PID.TID 0000.0001) %MON trcstat_ptracer0d_del2       =   8.1855126155723415E-09
(PID.TID 0000.0001) %MON trcstat_ptracer0e_max        =   6.9236345589160919E-03
(PID.TID 0000.0001) %MON trcstat_ptracer0e_min        =   0.0000000000000000E+00
(PID.TID 0000.0001) %MON trcstat_ptracer0e_mean       =   9.2237588514975256E-06
(PID.TID 0000.0001) %MON trcstat_ptracer0e_sd         =   7.9221809773732938E-05
(PID.TID 0000.0001) %MON trcstat_ptracer0e_del2       =   8.1855126155723031E-08
(PID.TID 0000.0001) %MON trcstat_ptracer0f_max        =   6.9236345589160919E-03
(PID.TID 0000.0001) %MON trcstat_ptracer0f_min        =   0.0000000000000000E+00
(PID.TID 0000.0001) %MON trcstat_ptracer0f_mean       =   9.2237588514975256E-06
(PID.TID 0000.0001) %MON trcstat_ptracer0f_sd         =   7.9221809773732938E-05
(PID.TID 0000.0001) %MON trcstat_ptracer0f_del2       =   8.1855126155723031E-08
(PID.TID 0000.0001) %MON trcstat_ptracer0g_max        =   6.9236345589160928E-04
(PID.TID 0000.0001) %MON trcstat_ptracer0g_min        =   0.0000000000000000E+00
(PID.TID 0000.0001) %MON trcstat_ptracer0g_mean       =   9.2237588514975588E-07
(PID.TID 0000.0001) %MON trcstat_ptracer0g_sd         =   7.9221809773731731E-06
(PID.TID 0000.0001) %MON trcstat_ptracer0g_del2       =   8.1855126155723415E-09
(PID.TID 0000.0001) %MON trcstat_ptracer0h_max        =   6.9236345589160919E-03
(PID.TID 0000.0001) %MON trcstat_ptracer0h_min        =   0.0000000000000000E+00
(PID.TID 0000.0001) %MON trcstat_ptracer0h_mean       =   9.2237588514975256E-06
(PID.TID 0000.0001) %MON trcstat_ptracer0h_sd         =   7.9221809773732938E-05
(PID.TID 0000.0001) %MON trcstat_ptracer0h_del2       =   8.1855126155723031E-08
(PID.TID 0000.0001) %MON trcstat_ptracer0i_max        =   6.9236345589160919E-03
(PID.TID 0000.0001) %MON trcstat_ptracer0i_min        =   0.0000000000000000E+00
(PID.TID 0000.0001) %MON trcstat_ptracer0i_mean       =   9.2237588514975256E-06
(PID.TID 0000.0001) %MON trcstat_ptracer0i_sd         =   7.9221809773732938E-05
(PID.TID 0000.0001) %MON trcstat_ptracer0i_del2       =   8.1855126155723031E-08
(PID.TID 0000.0001) %MON trcstat_ptracer0j_max        =   6.9236345589160928E-04
(PID.TID 0000.0001) %MON trcstat_ptracer0j_min        =   0.0000000000000000E+00
(PID.TID 0000.0001) %MON trcstat_ptracer0j_mean       =   9.2237588514975588E-07
(PID.TID 0000.0001) %MON trcstat_ptracer0j_sd         =   7.9221809773731731E-06
(PID.TID 0000.0001) %MON trcstat_ptracer0j_del2       =   8.1855126155723415E-09
(PID.TID 0000.0001) %MON trcstat_ptracer0k_max        =   6.9236345589160919E-03
(PID.TID 0000.0001) %MON trcstat_ptracer0k_min        =   0.0000000000000000E+00
(PID.TID 0000.0001) %MON trcstat_ptracer0k_mean       =   9.2237588514975256E-06
(PID.TID 0000.0001) %MON trcstat_ptracer0k_sd         =   7.9221809773732938E-05
(PID.TID 0000.0001) %MON trcstat_ptracer0k_del2       =   8.1855126155723031E-08
(PID.TID 0000.0001) %MON trcstat_ptracer0l_max        =   6.9236345589160919E-03
(PID.TID 0000.0001) %MON trcstat_ptracer0l_min        =   0.0000000000000000E+00
(PID.TID 0000.0001) %MON trcstat_ptracer0l_mean       =   9.2237588514975256E-06
(PID.TID 0000.0001) %MON trcstat_ptracer0l_sd         =   7.9221809773732938E-05
(PID.TID 0000.0001) %MON trcstat_ptracer0l_del2       =   8.1855126155723031E-08
(PID.TID 0000.0001) %MON trcstat_ptracer0m_max        =   6.9236345589160928E-04
(PID.TID 0000.0001) %MON trcstat_ptracer0m_min        =   0.0000000000000000E+00
(PID.TID 0000.0001) %MON trcstat_ptracer0m_mean       =   9.2237588514975588E-07
(PID.TID 0000.0001) %MON trcstat_ptracer0m_sd         =   7.9221809773731731E-06
(PID.TID 0000.0001) %MON trcstat_ptracer0m_del2       =   8.1855126155723415E-09
(PID.TID 0000.0001) %MON trcstat_ptracer0n_max        =   6.9236345589160919E-03
(PID.TID 0000.0001) %MON trcstat_ptracer0n_min        =   0.0000000000000000E+00
(PID.TID 0000.0001) %MON trcstat_ptracer0n_mean       =   9.2237588514975256E-06
(PID.TID 0000.0001) %MON trcstat_ptracer0n_sd         =   7.9221809773732938E-05
(PID.TID 0000.0001) %MON trcstat_ptracer0n_del2       =   8.1855126155723031E-08
(PID.TID 0000.0001) %MON trcstat_ptracer0o_max        =   6.9236345589160919E-03
(PID.TID 0000.0001) %MON trcstat_ptracer0o_min        =   0.0000000000000000E+00
(PID.TID 0000.0001) %MON trcstat_ptracer0o_mean       =   9.2237588514975256E-06
(PID.TID 0000.0001) %MON trcstat_ptracer0o_sd         =   7.9221809773732938E-05
(PID.TID 0000.0001) %MON trcstat_ptracer0o_del2       =   8.1855126155723031E-08
(PID.TID 0000.0001) %MON trcstat_ptracer0p_max        =   6.9236345589160919E-03
(PID.TID 0000.0001) %MON trcstat_ptracer0p_min        =   0.0000000000000000E+00
(PID.TID 0000.0001) %MON trcstat_ptracer0p_mean       =   9.2237588514975256E-06
(PID.TID 0000.0001) %MON trcstat_ptracer0p_sd         =   7.9221809773732938E-05
(PID.TID 0000.0001) %MON trcstat_ptracer0p_del2       =   8.1855126155723031E-08
(PID.TID 0000.0001) %MON trcstat_ptracer0q_max        =   6.9236345589160919E-03
(PID.TID 0000.0001) %MON trcstat_ptracer0q_min        =   0.0000000000000000E+00
(PID.TID 0000.0001) %MON trcstat_ptracer0q_mean       =   9.2237588514975256E-06
(PID.TID 0000.0001) %MON trcstat_ptracer0q_sd         =   7.9221809773732938E-05
(PID.TID 0000.0001) %MON trcstat_ptracer0q_del2       =   8.1855126155723031E-08
(PID.TID 0000.0001) %MON trcstat_ptracer0r_max        =   6.9236345589160919E-03
(PID.TID 0000.0001) %MON trcstat_ptracer0r_min        =   0.0000000000000000E+00
(PID.TID 0000.0001) %MON trcstat_ptracer0r_mean       =   9.2237588514975256E-06
(PID.TID 0000.0001) %MON trcstat_ptracer0r_sd         =   7.9221809773732938E-05
(PID.TID 0000.0001) %MON trcstat_ptracer0r_del2       =   8.1855126155723031E-08
(PID.TID 0000.0001) %MON trcstat_ptracer0s_max        =   6.9236345589160919E-03
(PID.TID 0000.0001) %MON trcstat_ptracer0s_min        =   0.0000000000000000E+00
(PID.TID 0000.0001) %MON trcstat_ptracer0s_mean       =   9.2237588514975256E-06
(PID.TID 0000.0001) %MON trcstat_ptracer0s_sd         =   7.9221809773732938E-05
(PID.TID 0000.0001) %MON trcstat_ptracer0s_del2       =   8.1855126155723031E-08
(PID.TID 0000.0001) %MON trcstat_ptracer0t_max        =   6.9236345589160919E-03
(PID.TID 0000.0001) %MON trcstat_ptracer0t_min        =   0.0000000000000000E+00
(PID.TID 0000.0001) %MON trcstat_ptracer0t_mean       =   9.2237588514975256E-06
(PID.TID 0000.0001) %MON trcstat_ptracer0t_sd         =   7.9221809773732938E-05
(PID.TID 0000.0001) %MON trcstat_ptracer0t_del2       =   8.1855126155723031E-08
(PID.TID 0000.0001) %MON trcstat_ptracer0u_max        =   6.9236345589160919E-03
(PID.TID 0000.0001) %MON trcstat_ptracer0u_min        =   0.0000000000000000E+00
(PID.TID 0000.0001) %MON trcstat_ptracer0u_mean       =   9.2237588514975256E-06
(PID.TID 0000.0001) %MON trcstat_ptracer0u_sd         =   7.9221809773732938E-05
(PID.TID 0000.0001) %MON trcstat_ptracer0u_del2       =   8.1855126155723031E-08
(PID.TID 0000.0001) %MON trcstat_ptracer0v_max        =   6.9236345589160919E-03
(PID.TID 0000.0001) %MON trcstat_ptracer0v_min        =   0.0000000000000000E+00
(PID.TID 0000.0001) %MON trcstat_ptracer0v_mean       =   9.2237588514975256E-06
(PID.TID 0000.0001) %MON trcstat_ptracer0v_sd         =   7.9221809773732938E-05
(PID.TID 0000.0001) %MON trcstat_ptracer0v_del2       =   8.1855126155723031E-08
(PID.TID 0000.0001) %MON trcstat_ptracer0w_max        =   6.9236345589160919E-03
(PID.TID 0000.0001) %MON trcstat_ptracer0w_min        =   0.0000000000000000E+00
(PID.TID 0000.0001) %MON trcstat_ptracer0w_mean       =   9.2237588514975256E-06
(PID.TID 0000.0001) %MON trcstat_ptracer0w_sd         =   7.9221809773732938E-05
(PID.TID 0000.0001) %MON trcstat_ptracer0w_del2       =   8.1855126155723031E-08
(PID.TID 0000.0001) %MON trcstat_ptracer0x_max        =   6.9236345589160919E-03
(PID.TID 0000.0001) %MON trcstat_ptracer0x_min        =   0.0000000000000000E+00
(PID.TID 0000.0001) %MON trcstat_ptracer0x_mean       =   9.2237588514975256E-06
(PID.TID 0000.0001) %MON trcstat_ptracer0x_sd         =   7.9221809773732938E-05
(PID.TID 0000.0001) %MON trcstat_ptracer0x_del2       =   8.1855126155723031E-08
(PID.TID 0000.0001) %MON trcstat_ptracer0y_max        =   6.9236345589160919E-03
(PID.TID 0000.0001) %MON trcstat_ptracer0y_min        =   0.0000000000000000E+00
(PID.TID 0000.0001) %MON trcstat_ptracer0y_mean       =   9.2237588514975256E-06
(PID.TID 0000.0001) %MON trcstat_ptracer0y_sd         =   7.9221809773732938E-05
(PID.TID 0000.0001) %MON trcstat_ptracer0y_del2       =   8.1855126155723031E-08
(PID.TID 0000.0001) %MON trcstat_ptracer0z_max        =   6.9236345589160919E-03
(PID.TID 0000.0001) %MON trcstat_ptracer0z_min        =   0.0000000000000000E+00
(PID.TID 0000.0001) %MON trcstat_ptracer0z_mean       =   9.2237588514975256E-06
(PID.TID 0000.0001) %MON trcstat_ptracer0z_sd         =   7.9221809773732938E-05
(PID.TID 0000.0001) %MON trcstat_ptracer0z_del2       =   8.1855126155723031E-08
(PID.TID 0000.0001) %MON trcstat_ptracer0A_max        =   6.9236345589160919E-03
(PID.TID 0000.0001) %MON trcstat_ptracer0A_min        =   0.0000000000000000E+00
(PID.TID 0000.0001) %MON trcstat_ptracer0A_mean       =   9.2237588514975256E-06
(PID.TID 0000.0001) %MON trcstat_ptracer0A_sd         =   7.9221809773732938E-05
(PID.TID 0000.0001) %MON trcstat_ptracer0A_del2       =   8.1855126155723031E-08
(PID.TID 0000.0001) %MON trcstat_ptracer0B_max        =   6.9236345589160919E-03
(PID.TID 0000.0001) %MON trcstat_ptracer0B_min        =   0.0000000000000000E+00
(PID.TID 0000.0001) %MON trcstat_ptracer0B_mean       =   9.2237588514975256E-06
(PID.TID 0000.0001) %MON trcstat_ptracer0B_sd         =   7.9221809773732938E-05
(PID.TID 0000.0001) %MON trcstat_ptracer0B_del2       =   8.1855126155723031E-08
(PID.TID 0000.0001) %MON trcstat_ptracer0C_max        =   6.9236345589160919E-03
(PID.TID 0000.0001) %MON trcstat_ptracer0C_min        =   0.0000000000000000E+00
(PID.TID 0000.0001) %MON trcstat_ptracer0C_mean       =   9.2237588514975256E-06
(PID.TID 0000.0001) %MON trcstat_ptracer0C_sd         =   7.9221809773732938E-05
(PID.TID 0000.0001) %MON trcstat_ptracer0C_del2       =   8.1855126155723031E-08
(PID.TID 0000.0001) %MON trcstat_ptracer0D_max        =   6.9236345589160919E-03
(PID.TID 0000.0001) %MON trcstat_ptracer0D_min        =   0.0000000000000000E+00
(PID.TID 0000.0001) %MON trcstat_ptracer0D_mean       =   9.2237588514975256E-06
(PID.TID 0000.0001) %MON trcstat_ptracer0D_sd         =   7.9221809773732938E-05
(PID.TID 0000.0001) %MON trcstat_ptracer0D_del2       =   8.1855126155723031E-08
(PID.TID 0000.0001) %MON trcstat_ptracer0E_max        =   6.9236345589160919E-03
(PID.TID 0000.0001) %MON trcstat_ptracer0E_min        =   0.0000000000000000E+00
(PID.TID 0000.0001) %MON trcstat_ptracer0E_mean       =   9.2237588514975256E-06
(PID.TID 0000.0001) %MON trcstat_ptracer0E_sd         =   7.9221809773732938E-05
(PID.TID 0000.0001) %MON trcstat_ptracer0E_del2       =   8.1855126155723031E-08
(PID.TID 0000.0001) %MON trcstat_ptracer0F_max        =   6.9236345589160919E-03
(PID.TID 0000.0001) %MON trcstat_ptracer0F_min        =   0.0000000000000000E+00
(PID.TID 0000.0001) %MON trcstat_ptracer0F_mean       =   9.2237588514975256E-06
(PID.TID 0000.0001) %MON trcstat_ptracer0F_sd         =   7.9221809773732938E-05
(PID.TID 0000.0001) %MON trcstat_ptracer0F_del2       =   8.1855126155723031E-08
(PID.TID 0000.0001) %MON trcstat_ptracer0G_max        =   6.9236345589160919E-03
(PID.TID 0000.0001) %MON trcstat_ptracer0G_min        =   0.0000000000000000E+00
(PID.TID 0000.0001) %MON trcstat_ptracer0G_mean       =   9.2237588514975256E-06
(PID.TID 0000.0001) %MON trcstat_ptracer0G_sd         =   7.9221809773732938E-05
(PID.TID 0000.0001) %MON trcstat_ptracer0G_del2       =   8.1855126155723031E-08
(PID.TID 0000.0001) %MON trcstat_ptracer0H_max        =   6.9236345589160919E-03
(PID.TID 0000.0001) %MON trcstat_ptracer0H_min        =   0.0000000000000000E+00
(PID.TID 0000.0001) %MON trcstat_ptracer0H_mean       =   9.2237588514975256E-06
(PID.TID 0000.0001) %MON trcstat_ptracer0H_sd         =   7.9221809773732938E-05
(PID.TID 0000.0001) %MON trcstat_ptracer0H_del2       =   8.1855126155723031E-08
(PID.TID 0000.0001) %MON trcstat_ptracer0I_max        =   0.0000000000000000E+00
(PID.TID 0000.0001) %MON trcstat_ptracer0I_min        =   0.0000000000000000E+00
(PID.TID 0000.0001) %MON trcstat_ptracer0I_mean       =   0.0000000000000000E+00
(PID.TID 0000.0001) %MON trcstat_ptracer0I_sd         =   0.0000000000000000E+00
(PID.TID 0000.0001) %MON trcstat_ptracer0I_del2       =   0.0000000000000000E+00
(PID.TID 0000.0001) %MON trcstat_ptracer0J_max        =   0.0000000000000000E+00
(PID.TID 0000.0001) %MON trcstat_ptracer0J_min        =   0.0000000000000000E+00
(PID.TID 0000.0001) %MON trcstat_ptracer0J_mean       =   0.0000000000000000E+00
(PID.TID 0000.0001) %MON trcstat_ptracer0J_sd         =   0.0000000000000000E+00
(PID.TID 0000.0001) %MON trcstat_ptracer0J_del2       =   0.0000000000000000E+00
(PID.TID 0000.0001) %MON trcstat_ptracer0K_max        =   0.0000000000000000E+00
(PID.TID 0000.0001) %MON trcstat_ptracer0K_min        =   0.0000000000000000E+00
(PID.TID 0000.0001) %MON trcstat_ptracer0K_mean       =   0.0000000000000000E+00
(PID.TID 0000.0001) %MON trcstat_ptracer0K_sd         =   0.0000000000000000E+00
(PID.TID 0000.0001) %MON trcstat_ptracer0K_del2       =   0.0000000000000000E+00
(PID.TID 0000.0001) %MON trcstat_ptracer0L_max        =   0.0000000000000000E+00
(PID.TID 0000.0001) %MON trcstat_ptracer0L_min        =   0.0000000000000000E+00
(PID.TID 0000.0001) %MON trcstat_ptracer0L_mean       =   0.0000000000000000E+00
(PID.TID 0000.0001) %MON trcstat_ptracer0L_sd         =   0.0000000000000000E+00
(PID.TID 0000.0001) %MON trcstat_ptracer0L_del2       =   0.0000000000000000E+00
(PID.TID 0000.0001) %MON trcstat_ptracer0M_max        =   0.0000000000000000E+00
(PID.TID 0000.0001) %MON trcstat_ptracer0M_min        =   0.0000000000000000E+00
(PID.TID 0000.0001) %MON trcstat_ptracer0M_mean       =   0.0000000000000000E+00
(PID.TID 0000.0001) %MON trcstat_ptracer0M_sd         =   0.0000000000000000E+00
(PID.TID 0000.0001) %MON trcstat_ptracer0M_del2       =   0.0000000000000000E+00
(PID.TID 0000.0001) %MON trcstat_ptracer0N_max        =   0.0000000000000000E+00
(PID.TID 0000.0001) %MON trcstat_ptracer0N_min        =   0.0000000000000000E+00
(PID.TID 0000.0001) %MON trcstat_ptracer0N_mean       =   0.0000000000000000E+00
(PID.TID 0000.0001) %MON trcstat_ptracer0N_sd         =   0.0000000000000000E+00
(PID.TID 0000.0001) %MON trcstat_ptracer0N_del2       =   0.0000000000000000E+00
(PID.TID 0000.0001) %MON trcstat_ptracer0O_max        =   1.1077815294265747E-01
(PID.TID 0000.0001) %MON trcstat_ptracer0O_min        =   0.0000000000000000E+00
(PID.TID 0000.0001) %MON trcstat_ptracer0O_mean       =   1.4758014162396041E-04
(PID.TID 0000.0001) %MON trcstat_ptracer0O_sd         =   1.2675489563797270E-03
(PID.TID 0000.0001) %MON trcstat_ptracer0O_del2       =   1.3096820184915685E-06
(PID.TID 0000.0001) %MON trcstat_ptracer0P_max        =   0.0000000000000000E+00
(PID.TID 0000.0001) %MON trcstat_ptracer0P_min        =   0.0000000000000000E+00
(PID.TID 0000.0001) %MON trcstat_ptracer0P_mean       =   0.0000000000000000E+00
(PID.TID 0000.0001) %MON trcstat_ptracer0P_sd         =   0.0000000000000000E+00
(PID.TID 0000.0001) %MON trcstat_ptracer0P_del2       =   0.0000000000000000E+00
(PID.TID 0000.0001) %MON trcstat_ptracer0Q_max        =   0.0000000000000000E+00
(PID.TID 0000.0001) %MON trcstat_ptracer0Q_min        =   0.0000000000000000E+00
(PID.TID 0000.0001) %MON trcstat_ptracer0Q_mean       =   0.0000000000000000E+00
(PID.TID 0000.0001) %MON trcstat_ptracer0Q_sd         =   0.0000000000000000E+00
(PID.TID 0000.0001) %MON trcstat_ptracer0Q_del2       =   0.0000000000000000E+00
(PID.TID 0000.0001) %MON trcstat_ptracer0R_max        =   1.1077815294265747E-01
(PID.TID 0000.0001) %MON trcstat_ptracer0R_min        =   0.0000000000000000E+00
(PID.TID 0000.0001) %MON trcstat_ptracer0R_mean       =   1.4758014162396041E-04
(PID.TID 0000.0001) %MON trcstat_ptracer0R_sd         =   1.2675489563797270E-03
(PID.TID 0000.0001) %MON trcstat_ptracer0R_del2       =   1.3096820184915685E-06
(PID.TID 0000.0001) %MON trcstat_ptracer0S_max        =   0.0000000000000000E+00
(PID.TID 0000.0001) %MON trcstat_ptracer0S_min        =   0.0000000000000000E+00
(PID.TID 0000.0001) %MON trcstat_ptracer0S_mean       =   0.0000000000000000E+00
(PID.TID 0000.0001) %MON trcstat_ptracer0S_sd         =   0.0000000000000000E+00
(PID.TID 0000.0001) %MON trcstat_ptracer0S_del2       =   0.0000000000000000E+00
(PID.TID 0000.0001) %MON trcstat_ptracer0T_max        =   0.0000000000000000E+00
(PID.TID 0000.0001) %MON trcstat_ptracer0T_min        =   0.0000000000000000E+00
(PID.TID 0000.0001) %MON trcstat_ptracer0T_mean       =   0.0000000000000000E+00
(PID.TID 0000.0001) %MON trcstat_ptracer0T_sd         =   0.0000000000000000E+00
(PID.TID 0000.0001) %MON trcstat_ptracer0T_del2       =   0.0000000000000000E+00
(PID.TID 0000.0001) %MON trcstat_ptracer0U_max        =   1.1077815294265747E-01
(PID.TID 0000.0001) %MON trcstat_ptracer0U_min        =   0.0000000000000000E+00
(PID.TID 0000.0001) %MON trcstat_ptracer0U_mean       =   1.4758014162396041E-04
(PID.TID 0000.0001) %MON trcstat_ptracer0U_sd         =   1.2675489563797270E-03
(PID.TID 0000.0001) %MON trcstat_ptracer0U_del2       =   1.3096820184915685E-06
(PID.TID 0000.0001) %MON trcstat_ptracer0V_max        =   0.0000000000000000E+00
(PID.TID 0000.0001) %MON trcstat_ptracer0V_min        =   0.0000000000000000E+00
(PID.TID 0000.0001) %MON trcstat_ptracer0V_mean       =   0.0000000000000000E+00
(PID.TID 0000.0001) %MON trcstat_ptracer0V_sd         =   0.0000000000000000E+00
(PID.TID 0000.0001) %MON trcstat_ptracer0V_del2       =   0.0000000000000000E+00
(PID.TID 0000.0001) %MON trcstat_ptracer0W_max        =   0.0000000000000000E+00
(PID.TID 0000.0001) %MON trcstat_ptracer0W_min        =   0.0000000000000000E+00
(PID.TID 0000.0001) %MON trcstat_ptracer0W_mean       =   0.0000000000000000E+00
(PID.TID 0000.0001) %MON trcstat_ptracer0W_sd         =   0.0000000000000000E+00
(PID.TID 0000.0001) %MON trcstat_ptracer0W_del2       =   0.0000000000000000E+00
(PID.TID 0000.0001) %MON trcstat_ptracer0X_max        =   1.1077815294265747E-01
(PID.TID 0000.0001) %MON trcstat_ptracer0X_min        =   0.0000000000000000E+00
(PID.TID 0000.0001) %MON trcstat_ptracer0X_mean       =   1.4758014162396041E-04
(PID.TID 0000.0001) %MON trcstat_ptracer0X_sd         =   1.2675489563797270E-03
(PID.TID 0000.0001) %MON trcstat_ptracer0X_del2       =   1.3096820184915685E-06
(PID.TID 0000.0001) %MON trcstat_ptracer0Y_max        =   0.0000000000000000E+00
(PID.TID 0000.0001) %MON trcstat_ptracer0Y_min        =   0.0000000000000000E+00
(PID.TID 0000.0001) %MON trcstat_ptracer0Y_mean       =   0.0000000000000000E+00
(PID.TID 0000.0001) %MON trcstat_ptracer0Y_sd         =   0.0000000000000000E+00
(PID.TID 0000.0001) %MON trcstat_ptracer0Y_del2       =   0.0000000000000000E+00
(PID.TID 0000.0001) %MON trcstat_ptracer0Z_max        =   0.0000000000000000E+00
(PID.TID 0000.0001) %MON trcstat_ptracer0Z_min        =   0.0000000000000000E+00
(PID.TID 0000.0001) %MON trcstat_ptracer0Z_mean       =   0.0000000000000000E+00
(PID.TID 0000.0001) %MON trcstat_ptracer0Z_sd         =   0.0000000000000000E+00
(PID.TID 0000.0001) %MON trcstat_ptracer0Z_del2       =   0.0000000000000000E+00
(PID.TID 0000.0001) %MON trcstat_ptracer1a_max        =   1.1077815294265747E-01
(PID.TID 0000.0001) %MON trcstat_ptracer1a_min        =   0.0000000000000000E+00
(PID.TID 0000.0001) %MON trcstat_ptracer1a_mean       =   1.4758014162396041E-04
(PID.TID 0000.0001) %MON trcstat_ptracer1a_sd         =   1.2675489563797270E-03
(PID.TID 0000.0001) %MON trcstat_ptracer1a_del2       =   1.3096820184915685E-06
(PID.TID 0000.0001) %MON trcstat_ptracer1b_max        =   0.0000000000000000E+00
(PID.TID 0000.0001) %MON trcstat_ptracer1b_min        =   0.0000000000000000E+00
(PID.TID 0000.0001) %MON trcstat_ptracer1b_mean       =   0.0000000000000000E+00
(PID.TID 0000.0001) %MON trcstat_ptracer1b_sd         =   0.0000000000000000E+00
(PID.TID 0000.0001) %MON trcstat_ptracer1b_del2       =   0.0000000000000000E+00
(PID.TID 0000.0001) %MON trcstat_ptracer1c_max        =   1.1077815294265747E-01
(PID.TID 0000.0001) %MON trcstat_ptracer1c_min        =   0.0000000000000000E+00
(PID.TID 0000.0001) %MON trcstat_ptracer1c_mean       =   1.4758014162396041E-04
(PID.TID 0000.0001) %MON trcstat_ptracer1c_sd         =   1.2675489563797270E-03
(PID.TID 0000.0001) %MON trcstat_ptracer1c_del2       =   1.3096820184915685E-06
(PID.TID 0000.0001) %MON trcstat_ptracer1d_max        =   1.1077815294265747E-01
(PID.TID 0000.0001) %MON trcstat_ptracer1d_min        =   0.0000000000000000E+00
(PID.TID 0000.0001) %MON trcstat_ptracer1d_mean       =   1.4758014162396041E-04
(PID.TID 0000.0001) %MON trcstat_ptracer1d_sd         =   1.2675489563797270E-03
(PID.TID 0000.0001) %MON trcstat_ptracer1d_del2       =   1.3096820184915685E-06
(PID.TID 0000.0001) %MON trcstat_ptracer1e_max        =   1.1077815294265747E-01
(PID.TID 0000.0001) %MON trcstat_ptracer1e_min        =   0.0000000000000000E+00
(PID.TID 0000.0001) %MON trcstat_ptracer1e_mean       =   1.4758014162396041E-04
(PID.TID 0000.0001) %MON trcstat_ptracer1e_sd         =   1.2675489563797270E-03
(PID.TID 0000.0001) %MON trcstat_ptracer1e_del2       =   1.3096820184915685E-06
(PID.TID 0000.0001) %MON trcstat_ptracer1f_max        =   1.1077815294265747E-01
(PID.TID 0000.0001) %MON trcstat_ptracer1f_min        =   0.0000000000000000E+00
(PID.TID 0000.0001) %MON trcstat_ptracer1f_mean       =   1.4758014162396041E-04
(PID.TID 0000.0001) %MON trcstat_ptracer1f_sd         =   1.2675489563797270E-03
(PID.TID 0000.0001) %MON trcstat_ptracer1f_del2       =   1.3096820184915685E-06
(PID.TID 0000.0001) %MON trcstat_ptracer1g_max        =   0.0000000000000000E+00
(PID.TID 0000.0001) %MON trcstat_ptracer1g_min        =   0.0000000000000000E+00
(PID.TID 0000.0001) %MON trcstat_ptracer1g_mean       =   0.0000000000000000E+00
(PID.TID 0000.0001) %MON trcstat_ptracer1g_sd         =   0.0000000000000000E+00
(PID.TID 0000.0001) %MON trcstat_ptracer1g_del2       =   0.0000000000000000E+00
(PID.TID 0000.0001) %MON trcstat_ptracer1h_max        =   0.0000000000000000E+00
(PID.TID 0000.0001) %MON trcstat_ptracer1h_min        =   0.0000000000000000E+00
(PID.TID 0000.0001) %MON trcstat_ptracer1h_mean       =   0.0000000000000000E+00
(PID.TID 0000.0001) %MON trcstat_ptracer1h_sd         =   0.0000000000000000E+00
(PID.TID 0000.0001) %MON trcstat_ptracer1h_del2       =   0.0000000000000000E+00
(PID.TID 0000.0001) %MON trcstat_ptracer1i_max        =   0.0000000000000000E+00
(PID.TID 0000.0001) %MON trcstat_ptracer1i_min        =   0.0000000000000000E+00
(PID.TID 0000.0001) %MON trcstat_ptracer1i_mean       =   0.0000000000000000E+00
(PID.TID 0000.0001) %MON trcstat_ptracer1i_sd         =   0.0000000000000000E+00
(PID.TID 0000.0001) %MON trcstat_ptracer1i_del2       =   0.0000000000000000E+00
(PID.TID 0000.0001) %MON trcstat_ptracer1j_max        =   0.0000000000000000E+00
(PID.TID 0000.0001) %MON trcstat_ptracer1j_min        =   0.0000000000000000E+00
(PID.TID 0000.0001) %MON trcstat_ptracer1j_mean       =   0.0000000000000000E+00
(PID.TID 0000.0001) %MON trcstat_ptracer1j_sd         =   0.0000000000000000E+00
(PID.TID 0000.0001) %MON trcstat_ptracer1j_del2       =   0.0000000000000000E+00
(PID.TID 0000.0001) %MON trcstat_ptracer1k_max        =   0.0000000000000000E+00
(PID.TID 0000.0001) %MON trcstat_ptracer1k_min        =   0.0000000000000000E+00
(PID.TID 0000.0001) %MON trcstat_ptracer1k_mean       =   0.0000000000000000E+00
(PID.TID 0000.0001) %MON trcstat_ptracer1k_sd         =   0.0000000000000000E+00
(PID.TID 0000.0001) %MON trcstat_ptracer1k_del2       =   0.0000000000000000E+00
(PID.TID 0000.0001) %MON trcstat_ptracer1l_max        =   0.0000000000000000E+00
(PID.TID 0000.0001) %MON trcstat_ptracer1l_min        =   0.0000000000000000E+00
(PID.TID 0000.0001) %MON trcstat_ptracer1l_mean       =   0.0000000000000000E+00
(PID.TID 0000.0001) %MON trcstat_ptracer1l_sd         =   0.0000000000000000E+00
(PID.TID 0000.0001) %MON trcstat_ptracer1l_del2       =   0.0000000000000000E+00
(PID.TID 0000.0001) %MON trcstat_ptracer1m_max        =   0.0000000000000000E+00
(PID.TID 0000.0001) %MON trcstat_ptracer1m_min        =   0.0000000000000000E+00
(PID.TID 0000.0001) %MON trcstat_ptracer1m_mean       =   0.0000000000000000E+00
(PID.TID 0000.0001) %MON trcstat_ptracer1m_sd         =   0.0000000000000000E+00
(PID.TID 0000.0001) %MON trcstat_ptracer1m_del2       =   0.0000000000000000E+00
(PID.TID 0000.0001) %MON trcstat_ptracer1n_max        =   0.0000000000000000E+00
(PID.TID 0000.0001) %MON trcstat_ptracer1n_min        =   0.0000000000000000E+00
(PID.TID 0000.0001) %MON trcstat_ptracer1n_mean       =   0.0000000000000000E+00
(PID.TID 0000.0001) %MON trcstat_ptracer1n_sd         =   0.0000000000000000E+00
(PID.TID 0000.0001) %MON trcstat_ptracer1n_del2       =   0.0000000000000000E+00
(PID.TID 0000.0001) %MON trcstat_ptracer1o_max        =   0.0000000000000000E+00
(PID.TID 0000.0001) %MON trcstat_ptracer1o_min        =   0.0000000000000000E+00
(PID.TID 0000.0001) %MON trcstat_ptracer1o_mean       =   0.0000000000000000E+00
(PID.TID 0000.0001) %MON trcstat_ptracer1o_sd         =   0.0000000000000000E+00
(PID.TID 0000.0001) %MON trcstat_ptracer1o_del2       =   0.0000000000000000E+00
(PID.TID 0000.0001) %MON trcstat_ptracer1p_max        =   0.0000000000000000E+00
(PID.TID 0000.0001) %MON trcstat_ptracer1p_min        =   0.0000000000000000E+00
(PID.TID 0000.0001) %MON trcstat_ptracer1p_mean       =   0.0000000000000000E+00
(PID.TID 0000.0001) %MON trcstat_ptracer1p_sd         =   0.0000000000000000E+00
(PID.TID 0000.0001) %MON trcstat_ptracer1p_del2       =   0.0000000000000000E+00
(PID.TID 0000.0001) %MON trcstat_ptracer1q_max        =   0.0000000000000000E+00
(PID.TID 0000.0001) %MON trcstat_ptracer1q_min        =   0.0000000000000000E+00
(PID.TID 0000.0001) %MON trcstat_ptracer1q_mean       =   0.0000000000000000E+00
(PID.TID 0000.0001) %MON trcstat_ptracer1q_sd         =   0.0000000000000000E+00
(PID.TID 0000.0001) %MON trcstat_ptracer1q_del2       =   0.0000000000000000E+00
(PID.TID 0000.0001) %MON trcstat_ptracer1r_max        =   0.0000000000000000E+00
(PID.TID 0000.0001) %MON trcstat_ptracer1r_min        =   0.0000000000000000E+00
(PID.TID 0000.0001) %MON trcstat_ptracer1r_mean       =   0.0000000000000000E+00
(PID.TID 0000.0001) %MON trcstat_ptracer1r_sd         =   0.0000000000000000E+00
(PID.TID 0000.0001) %MON trcstat_ptracer1r_del2       =   0.0000000000000000E+00
(PID.TID 0000.0001) %MON trcstat_ptracer1s_max        =   0.0000000000000000E+00
(PID.TID 0000.0001) %MON trcstat_ptracer1s_min        =   0.0000000000000000E+00
(PID.TID 0000.0001) %MON trcstat_ptracer1s_mean       =   0.0000000000000000E+00
(PID.TID 0000.0001) %MON trcstat_ptracer1s_sd         =   0.0000000000000000E+00
(PID.TID 0000.0001) %MON trcstat_ptracer1s_del2       =   0.0000000000000000E+00
(PID.TID 0000.0001) %MON trcstat_ptracer1t_max        =   0.0000000000000000E+00
(PID.TID 0000.0001) %MON trcstat_ptracer1t_min        =   0.0000000000000000E+00
(PID.TID 0000.0001) %MON trcstat_ptracer1t_mean       =   0.0000000000000000E+00
(PID.TID 0000.0001) %MON trcstat_ptracer1t_sd         =   0.0000000000000000E+00
(PID.TID 0000.0001) %MON trcstat_ptracer1t_del2       =   0.0000000000000000E+00
(PID.TID 0000.0001) %MON trcstat_ptracer1u_max        =   6.9236345589160918E-06
(PID.TID 0000.0001) %MON trcstat_ptracer1u_min        =   0.0000000000000000E+00
(PID.TID 0000.0001) %MON trcstat_ptracer1u_mean       =   9.2237588514972685E-09
(PID.TID 0000.0001) %MON trcstat_ptracer1u_sd         =   7.9221809773732041E-08
(PID.TID 0000.0001) %MON trcstat_ptracer1u_del2       =   8.1855126155723956E-11
(PID.TID 0000.0001) %MON trcstat_ptracer1v_max        =   6.9236345589160918E-06
(PID.TID 0000.0001) %MON trcstat_ptracer1v_min        =   0.0000000000000000E+00
(PID.TID 0000.0001) %MON trcstat_ptracer1v_mean       =   9.2237588514972685E-09
(PID.TID 0000.0001) %MON trcstat_ptracer1v_sd         =   7.9221809773732041E-08
(PID.TID 0000.0001) %MON trcstat_ptracer1v_del2       =   8.1855126155723956E-11
(PID.TID 0000.0001) %MON trcstat_ptracer1w_max        =   6.9236345589160918E-06
(PID.TID 0000.0001) %MON trcstat_ptracer1w_min        =   0.0000000000000000E+00
(PID.TID 0000.0001) %MON trcstat_ptracer1w_mean       =   9.2237588514972685E-09
(PID.TID 0000.0001) %MON trcstat_ptracer1w_sd         =   7.9221809773732041E-08
(PID.TID 0000.0001) %MON trcstat_ptracer1w_del2       =   8.1855126155723956E-11
(PID.TID 0000.0001) %MON trcstat_ptracer1x_max        =   6.9236345589160918E-06
(PID.TID 0000.0001) %MON trcstat_ptracer1x_min        =   0.0000000000000000E+00
(PID.TID 0000.0001) %MON trcstat_ptracer1x_mean       =   9.2237588514972685E-09
(PID.TID 0000.0001) %MON trcstat_ptracer1x_sd         =   7.9221809773732041E-08
(PID.TID 0000.0001) %MON trcstat_ptracer1x_del2       =   8.1855126155723956E-11
(PID.TID 0000.0001) %MON trcstat_ptracer1y_max        =   2.7694538235664370E-06
(PID.TID 0000.0001) %MON trcstat_ptracer1y_min        =   0.0000000000000000E+00
(PID.TID 0000.0001) %MON trcstat_ptracer1y_mean       =   3.6895035405989960E-09
(PID.TID 0000.0001) %MON trcstat_ptracer1y_sd         =   3.1688723909492761E-08
(PID.TID 0000.0001) %MON trcstat_ptracer1y_del2       =   3.2742050462289462E-11
(PID.TID 0000.0001) %MON trcstat_ptracer1z_max        =   6.9236345589160918E-06
(PID.TID 0000.0001) %MON trcstat_ptracer1z_min        =   0.0000000000000000E+00
(PID.TID 0000.0001) %MON trcstat_ptracer1z_mean       =   9.2237588514972685E-09
(PID.TID 0000.0001) %MON trcstat_ptracer1z_sd         =   7.9221809773732041E-08
(PID.TID 0000.0001) %MON trcstat_ptracer1z_del2       =   8.1855126155723956E-11
(PID.TID 0000.0001) %MON trcstat_ptracer1A_max        =   6.9236345589160918E-06
(PID.TID 0000.0001) %MON trcstat_ptracer1A_min        =   0.0000000000000000E+00
(PID.TID 0000.0001) %MON trcstat_ptracer1A_mean       =   9.2237588514972685E-09
(PID.TID 0000.0001) %MON trcstat_ptracer1A_sd         =   7.9221809773732041E-08
(PID.TID 0000.0001) %MON trcstat_ptracer1A_del2       =   8.1855126155723956E-11
(PID.TID 0000.0001) %MON trcstat_ptracer1B_max        =   2.7694538235664370E-06
(PID.TID 0000.0001) %MON trcstat_ptracer1B_min        =   0.0000000000000000E+00
(PID.TID 0000.0001) %MON trcstat_ptracer1B_mean       =   3.6895035405989960E-09
(PID.TID 0000.0001) %MON trcstat_ptracer1B_sd         =   3.1688723909492761E-08
(PID.TID 0000.0001) %MON trcstat_ptracer1B_del2       =   3.2742050462289462E-11
(PID.TID 0000.0001) %MON trcstat_ptracer1C_max        =   6.9236345589160918E-06
(PID.TID 0000.0001) %MON trcstat_ptracer1C_min        =   0.0000000000000000E+00
(PID.TID 0000.0001) %MON trcstat_ptracer1C_mean       =   9.2237588514972685E-09
(PID.TID 0000.0001) %MON trcstat_ptracer1C_sd         =   7.9221809773732041E-08
(PID.TID 0000.0001) %MON trcstat_ptracer1C_del2       =   8.1855126155723956E-11
(PID.TID 0000.0001) %MON trcstat_ptracer1D_max        =   6.9236345589160918E-06
(PID.TID 0000.0001) %MON trcstat_ptracer1D_min        =   0.0000000000000000E+00
(PID.TID 0000.0001) %MON trcstat_ptracer1D_mean       =   9.2237588514972685E-09
(PID.TID 0000.0001) %MON trcstat_ptracer1D_sd         =   7.9221809773732041E-08
(PID.TID 0000.0001) %MON trcstat_ptracer1D_del2       =   8.1855126155723956E-11
(PID.TID 0000.0001) %MON trcstat_ptracer1E_max        =   2.7694538235664370E-06
(PID.TID 0000.0001) %MON trcstat_ptracer1E_min        =   0.0000000000000000E+00
(PID.TID 0000.0001) %MON trcstat_ptracer1E_mean       =   3.6895035405989960E-09
(PID.TID 0000.0001) %MON trcstat_ptracer1E_sd         =   3.1688723909492761E-08
(PID.TID 0000.0001) %MON trcstat_ptracer1E_del2       =   3.2742050462289462E-11
(PID.TID 0000.0001) %MON trcstat_ptracer1F_max        =   6.9236345589160918E-06
(PID.TID 0000.0001) %MON trcstat_ptracer1F_min        =   0.0000000000000000E+00
(PID.TID 0000.0001) %MON trcstat_ptracer1F_mean       =   9.2237588514972685E-09
(PID.TID 0000.0001) %MON trcstat_ptracer1F_sd         =   7.9221809773732041E-08
(PID.TID 0000.0001) %MON trcstat_ptracer1F_del2       =   8.1855126155723956E-11
(PID.TID 0000.0001) %MON trcstat_ptracer1G_max        =   6.9236345589160918E-06
(PID.TID 0000.0001) %MON trcstat_ptracer1G_min        =   0.0000000000000000E+00
(PID.TID 0000.0001) %MON trcstat_ptracer1G_mean       =   9.2237588514972685E-09
(PID.TID 0000.0001) %MON trcstat_ptracer1G_sd         =   7.9221809773732041E-08
(PID.TID 0000.0001) %MON trcstat_ptracer1G_del2       =   8.1855126155723956E-11
(PID.TID 0000.0001) %MON trcstat_ptracer1H_max        =   2.7694538235664370E-06
(PID.TID 0000.0001) %MON trcstat_ptracer1H_min        =   0.0000000000000000E+00
(PID.TID 0000.0001) %MON trcstat_ptracer1H_mean       =   3.6895035405989960E-09
(PID.TID 0000.0001) %MON trcstat_ptracer1H_sd         =   3.1688723909492761E-08
(PID.TID 0000.0001) %MON trcstat_ptracer1H_del2       =   3.2742050462289462E-11
(PID.TID 0000.0001) %MON trcstat_ptracer1I_max        =   6.9236345589160918E-06
(PID.TID 0000.0001) %MON trcstat_ptracer1I_min        =   0.0000000000000000E+00
(PID.TID 0000.0001) %MON trcstat_ptracer1I_mean       =   9.2237588514972685E-09
(PID.TID 0000.0001) %MON trcstat_ptracer1I_sd         =   7.9221809773732041E-08
(PID.TID 0000.0001) %MON trcstat_ptracer1I_del2       =   8.1855126155723956E-11
(PID.TID 0000.0001) %MON trcstat_ptracer1J_max        =   6.9236345589160918E-06
(PID.TID 0000.0001) %MON trcstat_ptracer1J_min        =   0.0000000000000000E+00
(PID.TID 0000.0001) %MON trcstat_ptracer1J_mean       =   9.2237588514972685E-09
(PID.TID 0000.0001) %MON trcstat_ptracer1J_sd         =   7.9221809773732041E-08
(PID.TID 0000.0001) %MON trcstat_ptracer1J_del2       =   8.1855126155723956E-11
(PID.TID 0000.0001) %MON trcstat_ptracer1K_max        =   2.7694538235664370E-06
(PID.TID 0000.0001) %MON trcstat_ptracer1K_min        =   0.0000000000000000E+00
(PID.TID 0000.0001) %MON trcstat_ptracer1K_mean       =   3.6895035405989960E-09
(PID.TID 0000.0001) %MON trcstat_ptracer1K_sd         =   3.1688723909492761E-08
(PID.TID 0000.0001) %MON trcstat_ptracer1K_del2       =   3.2742050462289462E-11
(PID.TID 0000.0001) %MON trcstat_ptracer1L_max        =   6.9236345589160918E-06
(PID.TID 0000.0001) %MON trcstat_ptracer1L_min        =   0.0000000000000000E+00
(PID.TID 0000.0001) %MON trcstat_ptracer1L_mean       =   9.2237588514972685E-09
(PID.TID 0000.0001) %MON trcstat_ptracer1L_sd         =   7.9221809773732041E-08
(PID.TID 0000.0001) %MON trcstat_ptracer1L_del2       =   8.1855126155723956E-11
(PID.TID 0000.0001) %MON trcstat_ptracer1M_max        =   6.9236345589160918E-06
(PID.TID 0000.0001) %MON trcstat_ptracer1M_min        =   0.0000000000000000E+00
(PID.TID 0000.0001) %MON trcstat_ptracer1M_mean       =   9.2237588514972685E-09
(PID.TID 0000.0001) %MON trcstat_ptracer1M_sd         =   7.9221809773732041E-08
(PID.TID 0000.0001) %MON trcstat_ptracer1M_del2       =   8.1855126155723956E-11
(PID.TID 0000.0001) %MON trcstat_ptracer1N_max        =   6.9236345589160918E-06
(PID.TID 0000.0001) %MON trcstat_ptracer1N_min        =   0.0000000000000000E+00
(PID.TID 0000.0001) %MON trcstat_ptracer1N_mean       =   9.2237588514972685E-09
(PID.TID 0000.0001) %MON trcstat_ptracer1N_sd         =   7.9221809773732041E-08
(PID.TID 0000.0001) %MON trcstat_ptracer1N_del2       =   8.1855126155723956E-11
(PID.TID 0000.0001) %MON trcstat_ptracer1O_max        =   6.9236345589160918E-06
(PID.TID 0000.0001) %MON trcstat_ptracer1O_min        =   0.0000000000000000E+00
(PID.TID 0000.0001) %MON trcstat_ptracer1O_mean       =   9.2237588514972685E-09
(PID.TID 0000.0001) %MON trcstat_ptracer1O_sd         =   7.9221809773732041E-08
(PID.TID 0000.0001) %MON trcstat_ptracer1O_del2       =   8.1855126155723956E-11
(PID.TID 0000.0001) %MON trcstat_ptracer1P_max        =   6.9236345589160918E-06
(PID.TID 0000.0001) %MON trcstat_ptracer1P_min        =   0.0000000000000000E+00
(PID.TID 0000.0001) %MON trcstat_ptracer1P_mean       =   9.2237588514972685E-09
(PID.TID 0000.0001) %MON trcstat_ptracer1P_sd         =   7.9221809773732041E-08
(PID.TID 0000.0001) %MON trcstat_ptracer1P_del2       =   8.1855126155723956E-11
(PID.TID 0000.0001) %MON trcstat_ptracer1Q_max        =   6.9236345589160918E-06
(PID.TID 0000.0001) %MON trcstat_ptracer1Q_min        =   0.0000000000000000E+00
(PID.TID 0000.0001) %MON trcstat_ptracer1Q_mean       =   9.2237588514972685E-09
(PID.TID 0000.0001) %MON trcstat_ptracer1Q_sd         =   7.9221809773732041E-08
(PID.TID 0000.0001) %MON trcstat_ptracer1Q_del2       =   8.1855126155723956E-11
(PID.TID 0000.0001) %MON trcstat_ptracer1R_max        =   6.9236345589160918E-06
(PID.TID 0000.0001) %MON trcstat_ptracer1R_min        =   0.0000000000000000E+00
(PID.TID 0000.0001) %MON trcstat_ptracer1R_mean       =   9.2237588514972685E-09
(PID.TID 0000.0001) %MON trcstat_ptracer1R_sd         =   7.9221809773732041E-08
(PID.TID 0000.0001) %MON trcstat_ptracer1R_del2       =   8.1855126155723956E-11
(PID.TID 0000.0001) %MON trcstat_ptracer1S_max        =   6.9236345589160918E-06
(PID.TID 0000.0001) %MON trcstat_ptracer1S_min        =   0.0000000000000000E+00
(PID.TID 0000.0001) %MON trcstat_ptracer1S_mean       =   9.2237588514972685E-09
(PID.TID 0000.0001) %MON trcstat_ptracer1S_sd         =   7.9221809773732041E-08
(PID.TID 0000.0001) %MON trcstat_ptracer1S_del2       =   8.1855126155723956E-11
(PID.TID 0000.0001) %MON trcstat_ptracer1T_max        =   6.9236345589160918E-06
(PID.TID 0000.0001) %MON trcstat_ptracer1T_min        =   0.0000000000000000E+00
(PID.TID 0000.0001) %MON trcstat_ptracer1T_mean       =   9.2237588514972685E-09
(PID.TID 0000.0001) %MON trcstat_ptracer1T_sd         =   7.9221809773732041E-08
(PID.TID 0000.0001) %MON trcstat_ptracer1T_del2       =   8.1855126155723956E-11
(PID.TID 0000.0001) %MON trcstat_ptracer1U_max        =   6.9236345589160918E-06
(PID.TID 0000.0001) %MON trcstat_ptracer1U_min        =   0.0000000000000000E+00
(PID.TID 0000.0001) %MON trcstat_ptracer1U_mean       =   9.2237588514972685E-09
(PID.TID 0000.0001) %MON trcstat_ptracer1U_sd         =   7.9221809773732041E-08
(PID.TID 0000.0001) %MON trcstat_ptracer1U_del2       =   8.1855126155723956E-11
(PID.TID 0000.0001) %MON trcstat_ptracer1V_max        =   6.9236345589160918E-06
(PID.TID 0000.0001) %MON trcstat_ptracer1V_min        =   0.0000000000000000E+00
(PID.TID 0000.0001) %MON trcstat_ptracer1V_mean       =   9.2237588514972685E-09
(PID.TID 0000.0001) %MON trcstat_ptracer1V_sd         =   7.9221809773732041E-08
(PID.TID 0000.0001) %MON trcstat_ptracer1V_del2       =   8.1855126155723956E-11
(PID.TID 0000.0001) %MON trcstat_ptracer1W_max        =   6.9236345589160918E-06
(PID.TID 0000.0001) %MON trcstat_ptracer1W_min        =   0.0000000000000000E+00
(PID.TID 0000.0001) %MON trcstat_ptracer1W_mean       =   9.2237588514972685E-09
(PID.TID 0000.0001) %MON trcstat_ptracer1W_sd         =   7.9221809773732041E-08
(PID.TID 0000.0001) %MON trcstat_ptracer1W_del2       =   8.1855126155723956E-11
(PID.TID 0000.0001) %MON trcstat_ptracer1X_max        =   6.9236345589160918E-06
(PID.TID 0000.0001) %MON trcstat_ptracer1X_min        =   0.0000000000000000E+00
(PID.TID 0000.0001) %MON trcstat_ptracer1X_mean       =   9.2237588514972685E-09
(PID.TID 0000.0001) %MON trcstat_ptracer1X_sd         =   7.9221809773732041E-08
(PID.TID 0000.0001) %MON trcstat_ptracer1X_del2       =   8.1855126155723956E-11
(PID.TID 0000.0001) %MON trcstat_ptracer1Y_max        =   6.9236345589160918E-06
(PID.TID 0000.0001) %MON trcstat_ptracer1Y_min        =   0.0000000000000000E+00
(PID.TID 0000.0001) %MON trcstat_ptracer1Y_mean       =   9.2237588514972685E-09
(PID.TID 0000.0001) %MON trcstat_ptracer1Y_sd         =   7.9221809773732041E-08
(PID.TID 0000.0001) %MON trcstat_ptracer1Y_del2       =   8.1855126155723956E-11
(PID.TID 0000.0001) %MON trcstat_ptracer1Z_max        =   6.9236345589160918E-06
(PID.TID 0000.0001) %MON trcstat_ptracer1Z_min        =   0.0000000000000000E+00
(PID.TID 0000.0001) %MON trcstat_ptracer1Z_mean       =   9.2237588514972685E-09
(PID.TID 0000.0001) %MON trcstat_ptracer1Z_sd         =   7.9221809773732041E-08
(PID.TID 0000.0001) %MON trcstat_ptracer1Z_del2       =   8.1855126155723956E-11
(PID.TID 0000.0001) %MON trcstat_ptracer2a_max        =   6.9236345589160918E-06
(PID.TID 0000.0001) %MON trcstat_ptracer2a_min        =   0.0000000000000000E+00
(PID.TID 0000.0001) %MON trcstat_ptracer2a_mean       =   9.2237588514972685E-09
(PID.TID 0000.0001) %MON trcstat_ptracer2a_sd         =   7.9221809773732041E-08
(PID.TID 0000.0001) %MON trcstat_ptracer2a_del2       =   8.1855126155723956E-11
(PID.TID 0000.0001) %MON trcstat_ptracer2b_max        =   6.9236345589160918E-06
(PID.TID 0000.0001) %MON trcstat_ptracer2b_min        =   0.0000000000000000E+00
(PID.TID 0000.0001) %MON trcstat_ptracer2b_mean       =   9.2237588514972685E-09
(PID.TID 0000.0001) %MON trcstat_ptracer2b_sd         =   7.9221809773732041E-08
(PID.TID 0000.0001) %MON trcstat_ptracer2b_del2       =   8.1855126155723956E-11
(PID.TID 0000.0001) %MON trcstat_ptracer2c_max        =   6.9236345589160918E-06
(PID.TID 0000.0001) %MON trcstat_ptracer2c_min        =   0.0000000000000000E+00
(PID.TID 0000.0001) %MON trcstat_ptracer2c_mean       =   9.2237588514972685E-09
(PID.TID 0000.0001) %MON trcstat_ptracer2c_sd         =   7.9221809773732041E-08
(PID.TID 0000.0001) %MON trcstat_ptracer2c_del2       =   8.1855126155723956E-11
(PID.TID 0000.0001) %MON trcstat_ptracer2d_max        =   6.9236345589160918E-06
(PID.TID 0000.0001) %MON trcstat_ptracer2d_min        =   0.0000000000000000E+00
(PID.TID 0000.0001) %MON trcstat_ptracer2d_mean       =   9.2237588514972685E-09
(PID.TID 0000.0001) %MON trcstat_ptracer2d_sd         =   7.9221809773732041E-08
(PID.TID 0000.0001) %MON trcstat_ptracer2d_del2       =   8.1855126155723956E-11
(PID.TID 0000.0001) %MON trcstat_ptracer2e_max        =   6.9236345589160918E-06
(PID.TID 0000.0001) %MON trcstat_ptracer2e_min        =   0.0000000000000000E+00
(PID.TID 0000.0001) %MON trcstat_ptracer2e_mean       =   9.2237588514972685E-09
(PID.TID 0000.0001) %MON trcstat_ptracer2e_sd         =   7.9221809773732041E-08
(PID.TID 0000.0001) %MON trcstat_ptracer2e_del2       =   8.1855126155723956E-11
(PID.TID 0000.0001) %MON trcstat_ptracer2f_max        =   6.9236345589160918E-06
(PID.TID 0000.0001) %MON trcstat_ptracer2f_min        =   0.0000000000000000E+00
(PID.TID 0000.0001) %MON trcstat_ptracer2f_mean       =   9.2237588514972685E-09
(PID.TID 0000.0001) %MON trcstat_ptracer2f_sd         =   7.9221809773732041E-08
(PID.TID 0000.0001) %MON trcstat_ptracer2f_del2       =   8.1855126155723956E-11
(PID.TID 0000.0001) %MON trcstat_ptracer2g_max        =   2.3160287311600095E-01
(PID.TID 0000.0001) %MON trcstat_ptracer2g_min        =   0.0000000000000000E+00
(PID.TID 0000.0001) %MON trcstat_ptracer2g_mean       =   2.0215966695297802E-04
(PID.TID 0000.0001) %MON trcstat_ptracer2g_sd         =   2.0586706642354720E-03
(PID.TID 0000.0001) %MON trcstat_ptracer2g_del2       =   2.0412257237375716E-06
(PID.TID 0000.0001) %MON trcstat_ptracer2h_max        =   2.3161516013231179E-01
(PID.TID 0000.0001) %MON trcstat_ptracer2h_min        =   0.0000000000000000E+00
(PID.TID 0000.0001) %MON trcstat_ptracer2h_mean       =   2.0622884752117838E-04
(PID.TID 0000.0001) %MON trcstat_ptracer2h_sd         =   2.0836789353844234E-03
(PID.TID 0000.0001) %MON trcstat_ptracer2h_del2       =   2.0637017492840285E-06
(PID.TID 0000.0001) %MON trcstat_ptracer2i_max        =   2.3162647320784338E-01
(PID.TID 0000.0001) %MON trcstat_ptracer2i_min        =   0.0000000000000000E+00
(PID.TID 0000.0001) %MON trcstat_ptracer2i_mean       =   2.1027243492691733E-04
(PID.TID 0000.0001) %MON trcstat_ptracer2i_sd         =   2.1084334868160417E-03
(PID.TID 0000.0001) %MON trcstat_ptracer2i_del2       =   2.0862102608478135E-06
(PID.TID 0000.0001) %MON trcstat_ptracer2j_max        =   2.3163688945865754E-01
(PID.TID 0000.0001) %MON trcstat_ptracer2j_min        =   0.0000000000000000E+00
(PID.TID 0000.0001) %MON trcstat_ptracer2j_mean       =   2.1428650925448196E-04
(PID.TID 0000.0001) %MON trcstat_ptracer2j_sd         =   2.1329162741768352E-03
(PID.TID 0000.0001) %MON trcstat_ptracer2j_del2       =   2.1087350961482105E-06
(PID.TID 0000.0001) %MON trcstat_ptracer2k_max        =   2.3162788631828579E-02
(PID.TID 0000.0001) %MON trcstat_ptracer2k_min        =   0.0000000000000000E+00
(PID.TID 0000.0001) %MON trcstat_ptracer2k_mean       =   2.1079971142728726E-05
(PID.TID 0000.0001) %MON trcstat_ptracer2k_sd         =   2.1116545572619498E-04
(PID.TID 0000.0001) %MON trcstat_ptracer2k_del2       =   2.0891585775940180E-07
(PID.TID 0000.0001) %MON trcstat_ptracer2l_max        =   2.3171880740420472E-01
(PID.TID 0000.0001) %MON trcstat_ptracer2l_min        =   0.0000000000000000E+00
(PID.TID 0000.0001) %MON trcstat_ptracer2l_mean       =   2.6433088469187066E-04
(PID.TID 0000.0001) %MON trcstat_ptracer2l_sd         =   2.4329406360906565E-03
(PID.TID 0000.0001) %MON trcstat_ptracer2l_del2       =   2.4103930009379681E-06
(PID.TID 0000.0001) %MON trcstat_ptracer2m_max        =   2.3173917544575254E-01
(PID.TID 0000.0001) %MON trcstat_ptracer2m_min        =   0.0000000000000000E+00
(PID.TID 0000.0001) %MON trcstat_ptracer2m_mean       =   2.8958709167843899E-04
(PID.TID 0000.0001) %MON trcstat_ptracer2m_sd         =   2.5842009461584355E-03
(PID.TID 0000.0001) %MON trcstat_ptracer2m_del2       =   2.5857447991922300E-06
(PID.TID 0000.0001) %MON trcstat_ptracer2n_max        =   2.3160272020161680E-02
(PID.TID 0000.0001) %MON trcstat_ptracer2n_min        =   0.0000000000000000E+00
(PID.TID 0000.0001) %MON trcstat_ptracer2n_mean       =   2.0211094508780678E-05
(PID.TID 0000.0001) %MON trcstat_ptracer2n_sd         =   2.0583706256778478E-04
(PID.TID 0000.0001) %MON trcstat_ptracer2n_del2       =   2.0409576380425282E-07
(PID.TID 0000.0001) %MON trcstat_ptracer2o_max        =   2.3171125106635998E-01
(PID.TID 0000.0001) %MON trcstat_ptracer2o_min        =   0.0000000000000000E+00
(PID.TID 0000.0001) %MON trcstat_ptracer2o_mean       =   2.5728201481785442E-04
(PID.TID 0000.0001) %MON trcstat_ptracer2o_sd         =   2.3909815091485366E-03
(PID.TID 0000.0001) %MON trcstat_ptracer2o_del2       =   2.3648840890111061E-06
(PID.TID 0000.0001) %MON trcstat_ptracer2p_max        =   2.3173556629433661E-01
(PID.TID 0000.0001) %MON trcstat_ptracer2p_min        =   0.0000000000000000E+00
(PID.TID 0000.0001) %MON trcstat_ptracer2p_mean       =   2.8418056814769066E-04
(PID.TID 0000.0001) %MON trcstat_ptracer2p_sd         =   2.5515934893658183E-03
(PID.TID 0000.0001) %MON trcstat_ptracer2p_del2       =   2.5463410893548564E-06
(PID.TID 0000.0001) %MON trcstat_ptracer2q_max        =   2.3157268277737082E-02
(PID.TID 0000.0001) %MON trcstat_ptracer2q_min        =   0.0000000000000000E+00
(PID.TID 0000.0001) %MON trcstat_ptracer2q_mean       =   1.9332307134320683E-05
(PID.TID 0000.0001) %MON trcstat_ptracer2q_sd         =   2.0040110526121452E-04
(PID.TID 0000.0001) %MON trcstat_ptracer2q_del2       =   1.9929830268019541E-07
(PID.TID 0000.0001) %MON trcstat_ptracer2r_max        =   2.3170223057287612E-01
(PID.TID 0000.0001) %MON trcstat_ptracer2r_min        =   0.0000000000000000E+00
(PID.TID 0000.0001) %MON trcstat_ptracer2r_mean       =   2.4989619096545698E-04
(PID.TID 0000.0001) %MON trcstat_ptracer2r_sd         =   2.3470008759061555E-03
(PID.TID 0000.0001) %MON trcstat_ptracer2r_del2       =   2.3184806705853424E-06
(PID.TID 0000.0001) %MON trcstat_ptracer2s_max        =   2.3173125765379254E-01
(PID.TID 0000.0001) %MON trcstat_ptracer2s_min        =   0.0000000000000000E+00
(PID.TID 0000.0001) %MON trcstat_ptracer2s_mean       =   2.7835562076521911E-04
(PID.TID 0000.0001) %MON trcstat_ptracer2s_sd         =   2.5166381065954584E-03
(PID.TID 0000.0001) %MON trcstat_ptracer2s_del2       =   2.5051109987808960E-06
(PID.TID 0000.0001) %MON trcstat_ptracer2t_max        =   2.3153683278060437E-02
(PID.TID 0000.0001) %MON trcstat_ptracer2t_min        =   0.0000000000000000E+00
(PID.TID 0000.0001) %MON trcstat_ptracer2t_mean       =   1.8447541030670038E-05
(PID.TID 0000.0001) %MON trcstat_ptracer2t_sd         =   1.9487769446419534E-04
(PID.TID 0000.0001) %MON trcstat_ptracer2t_del2       =   1.9454022849688332E-07
(PID.TID 0000.0001) %MON trcstat_ptracer2u_max        =   2.3169146237058122E-01
(PID.TID 0000.0001) %MON trcstat_ptracer2u_min        =   0.0000000000000000E+00
(PID.TID 0000.0001) %MON trcstat_ptracer2u_mean       =   2.4220303123223094E-04
(PID.TID 0000.0001) %MON trcstat_ptracer2u_sd         =   2.3011051482040683E-03
(PID.TID 0000.0001) %MON trcstat_ptracer2u_del2       =   2.2713746584178750E-06
(PID.TID 0000.0001) %MON trcstat_ptracer2v_max        =   2.3172611399029525E-01
(PID.TID 0000.0001) %MON trcstat_ptracer2v_min        =   0.0000000000000000E+00
(PID.TID 0000.0001) %MON trcstat_ptracer2v_mean       =   2.7212415371420662E-04
(PID.TID 0000.0001) %MON trcstat_ptracer2v_sd         =   2.4793904504607253E-03
(PID.TID 0000.0001) %MON trcstat_ptracer2v_del2       =   2.4622830421172372E-06
(PID.TID 0000.0001) %MON trcstat_ptracer2w_max        =   2.3149404777209951E-02
(PID.TID 0000.0001) %MON trcstat_ptracer2w_min        =   0.0000000000000000E+00
(PID.TID 0000.0001) %MON trcstat_ptracer2w_mean       =   1.7560768780470475E-05
(PID.TID 0000.0001) %MON trcstat_ptracer2w_sd         =   1.8928886096473746E-04
(PID.TID 0000.0001) %MON trcstat_ptracer2w_del2       =   1.8983882385663785E-07
(PID.TID 0000.0001) %MON trcstat_ptracer2x_max        =   2.3167860805593571E-01
(PID.TID 0000.0001) %MON trcstat_ptracer2x_min        =   0.0000000000000000E+00
(PID.TID 0000.0001) %MON trcstat_ptracer2x_mean       =   2.3423472733709801E-04
(PID.TID 0000.0001) %MON trcstat_ptracer2x_sd         =   2.2534094410737583E-03
(PID.TID 0000.0001) %MON trcstat_ptracer2x_del2       =   2.2237414457832034E-06
(PID.TID 0000.0001) %MON trcstat_ptracer2y_max        =   2.3171997352331253E-01
(PID.TID 0000.0001) %MON trcstat_ptracer2y_min        =   0.0000000000000000E+00
(PID.TID 0000.0001) %MON trcstat_ptracer2y_mean       =   2.6550332903890202E-04
(PID.TID 0000.0001) %MON trcstat_ptracer2y_sd         =   2.4399226733783520E-03
(PID.TID 0000.0001) %MON trcstat_ptracer2y_del2       =   2.4180889351249378E-06
(PID.TID 0000.0001) %MON trcstat_ptracer2z_max        =   2.3166326379178703E-01
(PID.TID 0000.0001) %MON trcstat_ptracer2z_min        =   0.0000000000000000E+00
(PID.TID 0000.0001) %MON trcstat_ptracer2z_mean       =   2.2602550765599735E-04
(PID.TID 0000.0001) %MON trcstat_ptracer2z_sd         =   2.2040385389028214E-03
(PID.TID 0000.0001) %MON trcstat_ptracer2z_del2       =   2.1757433768404578E-06
(PID.TID 0000.0001) %MON trcstat_ptracer2A_max        =   2.3171264314897605E-01
(PID.TID 0000.0001) %MON trcstat_ptracer2A_min        =   0.0000000000000000E+00
(PID.TID 0000.0001) %MON trcstat_ptracer2A_mean       =   2.5851496781604513E-04
(PID.TID 0000.0001) %MON trcstat_ptracer2A_sd         =   2.3983201056026753E-03
(PID.TID 0000.0001) %MON trcstat_ptracer2A_del2       =   2.3727538855223651E-06
(PID.TID 0000.0001) %MON trcstat_ptracer2B_max        =   2.3170389238415068E-01
(PID.TID 0000.0001) %MON trcstat_ptracer2B_min        =   0.0000000000000000E+00
(PID.TID 0000.0001) %MON trcstat_ptracer2B_mean       =   2.5118487830131015E-04
(PID.TID 0000.0001) %MON trcstat_ptracer2B_sd         =   2.3546786595192992E-03
(PID.TID 0000.0001) %MON trcstat_ptracer2B_del2       =   2.3264896806717017E-06
(PID.TID 0000.0001) %MON trcstat_ptracer2C_max        =   2.3169344614340628E-01
(PID.TID 0000.0001) %MON trcstat_ptracer2C_min        =   0.0000000000000000E+00
(PID.TID 0000.0001) %MON trcstat_ptracer2C_mean       =   2.4354217700900868E-04
(PID.TID 0000.0001) %MON trcstat_ptracer2C_sd         =   2.3091032712605581E-03
(PID.TID 0000.0001) %MON trcstat_ptracer2C_del2       =   2.2794912171847444E-06
(PID.TID 0000.0001) %MON trcstat_ptracer2D_max        =   2.3168097612555638E-01
(PID.TID 0000.0001) %MON trcstat_ptracer2D_min        =   0.0000000000000000E+00
(PID.TID 0000.0001) %MON trcstat_ptracer2D_mean       =   2.3561865526399106E-04
(PID.TID 0000.0001) %MON trcstat_ptracer2D_sd         =   2.2617075250981112E-03
(PID.TID 0000.0001) %MON trcstat_ptracer2D_del2       =   2.2319365416670885E-06
(PID.TID 0000.0001) // =======================================================
(PID.TID 0000.0001) // End MONITOR ptracers field statistics
(PID.TID 0000.0001) // =======================================================
(PID.TID 0000.0001) // =======================================================
(PID.TID 0000.0001) // Begin MONITOR EXF statistics
(PID.TID 0000.0001) // =======================================================
(PID.TID 0000.0001) %MON exf_tsnumber                 =                     0
(PID.TID 0000.0001) %MON exf_time_sec                 =   0.0000000000000000E+00
(PID.TID 0000.0001) %MON exf_ustress_max              =   0.0000000000000000E+00
(PID.TID 0000.0001) %MON exf_ustress_min              =   0.0000000000000000E+00
(PID.TID 0000.0001) %MON exf_ustress_mean             =   0.0000000000000000E+00
(PID.TID 0000.0001) %MON exf_ustress_sd               =   0.0000000000000000E+00
(PID.TID 0000.0001) %MON exf_ustress_del2             =   0.0000000000000000E+00
(PID.TID 0000.0001) %MON exf_vstress_max              =   0.0000000000000000E+00
(PID.TID 0000.0001) %MON exf_vstress_min              =   0.0000000000000000E+00
(PID.TID 0000.0001) %MON exf_vstress_mean             =   0.0000000000000000E+00
(PID.TID 0000.0001) %MON exf_vstress_sd               =   0.0000000000000000E+00
(PID.TID 0000.0001) %MON exf_vstress_del2             =   0.0000000000000000E+00
(PID.TID 0000.0001) %MON exf_hflux_max                =   0.0000000000000000E+00
(PID.TID 0000.0001) %MON exf_hflux_min                =   0.0000000000000000E+00
(PID.TID 0000.0001) %MON exf_hflux_mean               =   0.0000000000000000E+00
(PID.TID 0000.0001) %MON exf_hflux_sd                 =   0.0000000000000000E+00
(PID.TID 0000.0001) %MON exf_hflux_del2               =   0.0000000000000000E+00
(PID.TID 0000.0001) %MON exf_sflux_max                =   0.0000000000000000E+00
(PID.TID 0000.0001) %MON exf_sflux_min                =   0.0000000000000000E+00
(PID.TID 0000.0001) %MON exf_sflux_mean               =   0.0000000000000000E+00
(PID.TID 0000.0001) %MON exf_sflux_sd                 =   0.0000000000000000E+00
(PID.TID 0000.0001) %MON exf_sflux_del2               =   0.0000000000000000E+00
(PID.TID 0000.0001) %MON exf_uwind_max                =   0.0000000000000000E+00
(PID.TID 0000.0001) %MON exf_uwind_min                =   0.0000000000000000E+00
(PID.TID 0000.0001) %MON exf_uwind_mean               =   0.0000000000000000E+00
(PID.TID 0000.0001) %MON exf_uwind_sd                 =   0.0000000000000000E+00
(PID.TID 0000.0001) %MON exf_uwind_del2               =   0.0000000000000000E+00
(PID.TID 0000.0001) %MON exf_vwind_max                =   0.0000000000000000E+00
(PID.TID 0000.0001) %MON exf_vwind_min                =   0.0000000000000000E+00
(PID.TID 0000.0001) %MON exf_vwind_mean               =   0.0000000000000000E+00
(PID.TID 0000.0001) %MON exf_vwind_sd                 =   0.0000000000000000E+00
(PID.TID 0000.0001) %MON exf_vwind_del2               =   0.0000000000000000E+00
(PID.TID 0000.0001) %MON exf_wspeed_max               =   0.0000000000000000E+00
(PID.TID 0000.0001) %MON exf_wspeed_min               =   0.0000000000000000E+00
(PID.TID 0000.0001) %MON exf_wspeed_mean              =   0.0000000000000000E+00
(PID.TID 0000.0001) %MON exf_wspeed_sd                =   0.0000000000000000E+00
(PID.TID 0000.0001) %MON exf_wspeed_del2              =   0.0000000000000000E+00
(PID.TID 0000.0001) %MON exf_evap_max                 =   0.0000000000000000E+00
(PID.TID 0000.0001) %MON exf_evap_min                 =   0.0000000000000000E+00
(PID.TID 0000.0001) %MON exf_evap_mean                =   0.0000000000000000E+00
(PID.TID 0000.0001) %MON exf_evap_sd                  =   0.0000000000000000E+00
(PID.TID 0000.0001) %MON exf_evap_del2                =   0.0000000000000000E+00
(PID.TID 0000.0001) // =======================================================
(PID.TID 0000.0001) // End MONITOR EXF statistics
(PID.TID 0000.0001) // =======================================================
 EXTERNAL_FIELDS_LOAD, it=         0 : Reading new data, i0,i1=   12    1 (prev=   12    0 )
(PID.TID 0000.0001) // =======================================================
(PID.TID 0000.0001) // Begin MONITOR dynamic field statistics
(PID.TID 0000.0001) // =======================================================
(PID.TID 0000.0001) %MON time_tsnumber                =                     1
(PID.TID 0000.0001) %MON time_secondsf                =   1.0800000000000000E+04
(PID.TID 0000.0001) %MON dynstat_eta_max              =   0.0000000000000000E+00
(PID.TID 0000.0001) %MON dynstat_eta_min              =   0.0000000000000000E+00
(PID.TID 0000.0001) %MON dynstat_eta_mean             =   0.0000000000000000E+00
(PID.TID 0000.0001) %MON dynstat_eta_sd               =   0.0000000000000000E+00
(PID.TID 0000.0001) %MON dynstat_eta_del2             =   0.0000000000000000E+00
(PID.TID 0000.0001) %MON dynstat_uvel_max             =   7.5098115205764771E-01
(PID.TID 0000.0001) %MON dynstat_uvel_min             =  -8.5988894104957581E-01
(PID.TID 0000.0001) %MON dynstat_uvel_mean            =   2.3572816524444476E-03
(PID.TID 0000.0001) %MON dynstat_uvel_sd              =   2.2920832952052075E-02
(PID.TID 0000.0001) %MON dynstat_uvel_del2            =   2.5380623508417271E-05
(PID.TID 0000.0001) %MON dynstat_vvel_max             =   1.4433979988098145E+00
(PID.TID 0000.0001) %MON dynstat_vvel_min             =  -7.9056510329246521E-01
(PID.TID 0000.0001) %MON dynstat_vvel_mean            =  -1.9003223157283906E-05
(PID.TID 0000.0001) %MON dynstat_vvel_sd              =   1.1606396696779764E-02
(PID.TID 0000.0001) %MON dynstat_vvel_del2            =   2.3903080664409944E-05
(PID.TID 0000.0001) %MON dynstat_wvel_max             =   4.0098184399539605E-04
(PID.TID 0000.0001) %MON dynstat_wvel_min             =  -6.1701977392658591E-04
(PID.TID 0000.0001) %MON dynstat_wvel_mean            =   2.0603847453957670E-14
(PID.TID 0000.0001) %MON dynstat_wvel_sd              =   1.0036396689562423E-05
(PID.TID 0000.0001) %MON dynstat_wvel_del2            =   1.8497991144322058E-08
(PID.TID 0000.0001) %MON dynstat_theta_max            =   3.1759957313537598E+01
(PID.TID 0000.0001) %MON dynstat_theta_min            =  -2.6781991720199585E+00
(PID.TID 0000.0001) %MON dynstat_theta_mean           =   3.6072900423544030E+00
(PID.TID 0000.0001) %MON dynstat_theta_sd             =   4.4541205956314647E+00
(PID.TID 0000.0001) %MON dynstat_theta_del2           =   3.5727313459856381E-04
(PID.TID 0000.0001) %MON dynstat_salt_max             =   3.9536773681640625E+01
(PID.TID 0000.0001) %MON dynstat_salt_min             =   2.6413101196289062E+01
(PID.TID 0000.0001) %MON dynstat_salt_mean            =   3.4722225910308687E+01
(PID.TID 0000.0001) %MON dynstat_salt_sd              =   3.6521486169891076E-01
(PID.TID 0000.0001) %MON dynstat_salt_del2            =   6.8647712204606049E-05
(PID.TID 0000.0001) %MON dynstat_sst_max              =   3.1759957313537598E+01
(PID.TID 0000.0001) %MON dynstat_sst_min              =  -1.9927841424942017E+00
(PID.TID 0000.0001) %MON dynstat_sst_mean             =   1.9180627039434452E+01
(PID.TID 0000.0001) %MON dynstat_sst_sd               =   9.5507126256378854E+00
(PID.TID 0000.0001) %MON dynstat_sst_del2             =   2.1359256876322822E-03
(PID.TID 0000.0001) %MON dynstat_sss_max              =   3.9536773681640625E+01
(PID.TID 0000.0001) %MON dynstat_sss_min              =   2.6413101196289062E+01
(PID.TID 0000.0001) %MON dynstat_sss_mean             =   3.4862233940638127E+01
(PID.TID 0000.0001) %MON dynstat_sss_sd               =   1.0826450093342124E+00
(PID.TID 0000.0001) %MON dynstat_sss_del2             =   5.9710833084477015E-04
(PID.TID 0000.0001) %MON forcing_qnet_max             =   0.0000000000000000E+00
(PID.TID 0000.0001) %MON forcing_qnet_min             =   0.0000000000000000E+00
(PID.TID 0000.0001) %MON forcing_qnet_mean            =   0.0000000000000000E+00
(PID.TID 0000.0001) %MON forcing_qnet_sd              =   0.0000000000000000E+00
(PID.TID 0000.0001) %MON forcing_qnet_del2            =   0.0000000000000000E+00
(PID.TID 0000.0001) %MON forcing_qsw_max              =   0.0000000000000000E+00
(PID.TID 0000.0001) %MON forcing_qsw_min              =   0.0000000000000000E+00
(PID.TID 0000.0001) %MON forcing_qsw_mean             =   0.0000000000000000E+00
(PID.TID 0000.0001) %MON forcing_qsw_sd               =   0.0000000000000000E+00
(PID.TID 0000.0001) %MON forcing_qsw_del2             =   0.0000000000000000E+00
(PID.TID 0000.0001) %MON forcing_empmr_max            =   0.0000000000000000E+00
(PID.TID 0000.0001) %MON forcing_empmr_min            =   0.0000000000000000E+00
(PID.TID 0000.0001) %MON forcing_empmr_mean           =   0.0000000000000000E+00
(PID.TID 0000.0001) %MON forcing_empmr_sd             =   0.0000000000000000E+00
(PID.TID 0000.0001) %MON forcing_empmr_del2           =   0.0000000000000000E+00
(PID.TID 0000.0001) %MON forcing_fu_max               =   0.0000000000000000E+00
(PID.TID 0000.0001) %MON forcing_fu_min               =   0.0000000000000000E+00
(PID.TID 0000.0001) %MON forcing_fu_mean              =   0.0000000000000000E+00
(PID.TID 0000.0001) %MON forcing_fu_sd                =   0.0000000000000000E+00
(PID.TID 0000.0001) %MON forcing_fu_del2              =   0.0000000000000000E+00
(PID.TID 0000.0001) %MON forcing_fv_max               =   0.0000000000000000E+00
(PID.TID 0000.0001) %MON forcing_fv_min               =   0.0000000000000000E+00
(PID.TID 0000.0001) %MON forcing_fv_mean              =   0.0000000000000000E+00
(PID.TID 0000.0001) %MON forcing_fv_sd                =   0.0000000000000000E+00
(PID.TID 0000.0001) %MON forcing_fv_del2              =   0.0000000000000000E+00
(PID.TID 0000.0001) %MON advcfl_uvel_max              =   1.4092930500925430E-01
(PID.TID 0000.0001) %MON advcfl_vvel_max              =   1.4021454092399671E-01
(PID.TID 0000.0001) %MON advcfl_wvel_max              =   1.9247128511779013E-01
(PID.TID 0000.0001) %MON advcfl_W_hf_max              =   2.1653019575751387E-01
(PID.TID 0000.0001) %MON pe_b_mean                    =   0.0000000000000000E+00
(PID.TID 0000.0001) %MON ke_max                       =   8.2762730601178824E-01
(PID.TID 0000.0001) %MON ke_mean                      =   3.1922519158178876E-04
(PID.TID 0000.0001) %MON ke_vol                       =   1.3258927395735470E+18
(PID.TID 0000.0001) %MON vort_r_min                   =  -1.4668072202507861E-05
(PID.TID 0000.0001) %MON vort_r_max                   =   2.0065492707288839E-05
(PID.TID 0000.0001) %MON vort_a_mean                  =  -2.1443554588587620E-05
(PID.TID 0000.0001) %MON vort_a_sd                    =   7.3250404447070092E-05
(PID.TID 0000.0001) %MON vort_p_mean                  =  -2.3136237641927041E-05
(PID.TID 0000.0001) %MON vort_p_sd                    =   8.5528229257188847E-05
(PID.TID 0000.0001) %MON surfExpan_theta_mean         =  -2.8534960787153132E-08
(PID.TID 0000.0001) %MON surfExpan_salt_mean          =   6.2500851105055986E-09
(PID.TID 0000.0001) // =======================================================
(PID.TID 0000.0001) // End MONITOR dynamic field statistics
(PID.TID 0000.0001) // =======================================================
(PID.TID 0000.0001) // =======================================================
(PID.TID 0000.0001) // Begin MONITOR ptracer field statistics
(PID.TID 0000.0001) // =======================================================
(PID.TID 0000.0001) %MON trcstat_ptracer01_max        =   2.4045039015400957E+03
(PID.TID 0000.0001) %MON trcstat_ptracer01_min        =   1.8486564446487582E+03
(PID.TID 0000.0001) %MON trcstat_ptracer01_mean       =   2.2546512985181926E+03
(PID.TID 0000.0001) %MON trcstat_ptracer01_sd         =   7.8585476618461769E+01
(PID.TID 0000.0001) %MON trcstat_ptracer01_del2       =   5.1442649708330814E-03
(PID.TID 0000.0001) %MON trcstat_ptracer02_max        =   2.1545289358601303E+00
(PID.TID 0000.0001) %MON trcstat_ptracer02_min        =  -3.1980472861452254E-03
(PID.TID 0000.0001) %MON trcstat_ptracer02_mean       =   1.8160791436210204E-03
(PID.TID 0000.0001) %MON trcstat_ptracer02_sd         =   1.7674404251307847E-02
(PID.TID 0000.0001) %MON trcstat_ptracer02_del2       =   2.9001393701303304E-05
(PID.TID 0000.0001) %MON trcstat_ptracer03_max        =   3.0473575997212587E+00
(PID.TID 0000.0001) %MON trcstat_ptracer03_min        =  -1.5798365228332778E-03
(PID.TID 0000.0001) %MON trcstat_ptracer03_mean       =   5.7262404102347338E-03
(PID.TID 0000.0001) %MON trcstat_ptracer03_sd         =   2.3843026909978533E-02
(PID.TID 0000.0001) %MON trcstat_ptracer03_del2       =   2.8267823172432212E-05
(PID.TID 0000.0001) %MON trcstat_ptracer04_max        =   5.0740286375826358E+01
(PID.TID 0000.0001) %MON trcstat_ptracer04_min        =   9.5166552392424142E-04
(PID.TID 0000.0001) %MON trcstat_ptracer04_mean       =   3.1007624154665574E+01
(PID.TID 0000.0001) %MON trcstat_ptracer04_sd         =   9.0059058680734498E+00
(PID.TID 0000.0001) %MON trcstat_ptracer04_del2       =   5.2864324149295321E-04
(PID.TID 0000.0001) %MON trcstat_ptracer05_max        =   3.7949837097350927E+00
(PID.TID 0000.0001) %MON trcstat_ptracer05_min        =   1.8510420225585873E-02
(PID.TID 0000.0001) %MON trcstat_ptracer05_mean       =   2.1762164627557703E+00
(PID.TID 0000.0001) %MON trcstat_ptracer05_sd         =   6.4453484066507671E-01
(PID.TID 0000.0001) %MON trcstat_ptracer05_del2       =   3.6403311017211324E-05
(PID.TID 0000.0001) %MON trcstat_ptracer06_max        =   2.6066098167632072E+02
(PID.TID 0000.0001) %MON trcstat_ptracer06_min        =   2.7668991086222117E-01
(PID.TID 0000.0001) %MON trcstat_ptracer06_mean       =   9.0810322838005320E+01
(PID.TID 0000.0001) %MON trcstat_ptracer06_sd         =   5.2139977056715026E+01
(PID.TID 0000.0001) %MON trcstat_ptracer06_del2       =   1.1862745540495328E-03
(PID.TID 0000.0001) %MON trcstat_ptracer07_max        =   1.0973627611698335E-03
(PID.TID 0000.0001) %MON trcstat_ptracer07_min        =   1.0072989456512260E-07
(PID.TID 0000.0001) %MON trcstat_ptracer07_mean       =   6.2098096130622791E-04
(PID.TID 0000.0001) %MON trcstat_ptracer07_sd         =   1.7822479894079272E-04
(PID.TID 0000.0001) %MON trcstat_ptracer07_del2       =   6.0077369527558739E-08
(PID.TID 0000.0001) %MON trcstat_ptracer08_max        =   5.2081880657612821E+01
(PID.TID 0000.0001) %MON trcstat_ptracer08_min        =  -1.5162007218850530E-06
(PID.TID 0000.0001) %MON trcstat_ptracer08_mean       =   2.2613907706484496E-01
(PID.TID 0000.0001) %MON trcstat_ptracer08_sd         =   1.3255100696703006E+00
(PID.TID 0000.0001) %MON trcstat_ptracer08_del2       =   1.2218571710052382E-03
(PID.TID 0000.0001) %MON trcstat_ptracer09_max        =   7.3093052598745798E+00
(PID.TID 0000.0001) %MON trcstat_ptracer09_min        =  -6.2842374108519719E-06
(PID.TID 0000.0001) %MON trcstat_ptracer09_mean       =   3.0366694963201008E-02
(PID.TID 0000.0001) %MON trcstat_ptracer09_sd         =   1.7843663123592327E-01
(PID.TID 0000.0001) %MON trcstat_ptracer09_del2       =   1.6510410050711244E-04
(PID.TID 0000.0001) %MON trcstat_ptracer10_max        =   4.3401558549646890E-01
(PID.TID 0000.0001) %MON trcstat_ptracer10_min        =  -3.9274438028032329E-07
(PID.TID 0000.0001) %MON trcstat_ptracer10_mean       =   1.8844917013774566E-03
(PID.TID 0000.0001) %MON trcstat_ptracer10_sd         =   1.1045914126582372E-02
(PID.TID 0000.0001) %MON trcstat_ptracer10_del2       =   1.0182141486612770E-05
(PID.TID 0000.0001) %MON trcstat_ptracer11_max        =   5.0689649676640466E-04
(PID.TID 0000.0001) %MON trcstat_ptracer11_min        =  -1.2001859786108199E-11
(PID.TID 0000.0001) %MON trcstat_ptracer11_mean       =   1.9113404609621727E-06
(PID.TID 0000.0001) %MON trcstat_ptracer11_sd         =   1.1265409808341675E-05
(PID.TID 0000.0001) %MON trcstat_ptracer11_del2       =   1.0497547365453006E-08
(PID.TID 0000.0001) %MON trcstat_ptracer12_max        =   1.3357567496956628E+03
(PID.TID 0000.0001) %MON trcstat_ptracer12_min        =   9.9382382748845332E-05
(PID.TID 0000.0001) %MON trcstat_ptracer12_mean       =   1.6661513774421760E-01
(PID.TID 0000.0001) %MON trcstat_ptracer12_sd         =   2.3109049003802533E+00
(PID.TID 0000.0001) %MON trcstat_ptracer12_del2       =   8.9985321215772373E-04
(PID.TID 0000.0001) %MON trcstat_ptracer13_max        =   1.8863380488590246E+02
(PID.TID 0000.0001) %MON trcstat_ptracer13_min        =   1.3254543945562158E-05
(PID.TID 0000.0001) %MON trcstat_ptracer13_mean       =   2.2555680556346856E-02
(PID.TID 0000.0001) %MON trcstat_ptracer13_sd         =   3.2892268960621213E-01
(PID.TID 0000.0001) %MON trcstat_ptracer13_del2       =   1.2365174028319739E-04
(PID.TID 0000.0001) %MON trcstat_ptracer14_max        =   1.1133110435587342E+01
(PID.TID 0000.0001) %MON trcstat_ptracer14_min        =   8.2818654524796187E-07
(PID.TID 0000.0001) %MON trcstat_ptracer14_mean       =   1.3884627079178001E-03
(PID.TID 0000.0001) %MON trcstat_ptracer14_sd         =   1.9259212234780845E-02
(PID.TID 0000.0001) %MON trcstat_ptracer14_del2       =   7.4987762014642101E-06
(PID.TID 0000.0001) %MON trcstat_ptracer15_max        =   1.2251722574648431E+02
(PID.TID 0000.0001) %MON trcstat_ptracer15_min        =   1.7518763653410644E-07
(PID.TID 0000.0001) %MON trcstat_ptracer15_mean       =   1.3527760140401401E-01
(PID.TID 0000.0001) %MON trcstat_ptracer15_sd         =   3.9857923338498980E-01
(PID.TID 0000.0001) %MON trcstat_ptracer15_del2       =   2.6792528142719976E-04
(PID.TID 0000.0001) %MON trcstat_ptracer16_max        =   1.2446057863074548E-02
(PID.TID 0000.0001) %MON trcstat_ptracer16_min        =   8.2863145406955099E-10
(PID.TID 0000.0001) %MON trcstat_ptracer16_mean       =   1.4309907931772797E-06
(PID.TID 0000.0001) %MON trcstat_ptracer16_sd         =   2.1868428640164990E-05
(PID.TID 0000.0001) %MON trcstat_ptracer16_del2       =   7.9838951995862131E-09
(PID.TID 0000.0001) %MON trcstat_ptracer17_max        =   3.9015894205232973E+02
(PID.TID 0000.0001) %MON trcstat_ptracer17_min        =   1.1510163805204985E-07
(PID.TID 0000.0001) %MON trcstat_ptracer17_mean       =   2.2839915699320745E-01
(PID.TID 0000.0001) %MON trcstat_ptracer17_sd         =   1.0028074947026016E+00
(PID.TID 0000.0001) %MON trcstat_ptracer17_del2       =   1.5407958379185561E-03
(PID.TID 0000.0001) %MON trcstat_ptracer18_max        =   2.4565680849334622E+03
(PID.TID 0000.0001) %MON trcstat_ptracer18_min        =   2.1796633883133172E+03
(PID.TID 0000.0001) %MON trcstat_ptracer18_mean       =   2.3632513618851085E+03
(PID.TID 0000.0001) %MON trcstat_ptracer18_sd         =   4.2540356982664868E+01
(PID.TID 0000.0001) %MON trcstat_ptracer18_del2       =   1.9215666434896888E-03
(PID.TID 0000.0001) %MON trcstat_ptracer19_max        =   4.0337862757263946E+02
(PID.TID 0000.0001) %MON trcstat_ptracer19_min        =   3.1112289882168480E+00
(PID.TID 0000.0001) %MON trcstat_ptracer19_mean       =   1.7469132874972868E+02
(PID.TID 0000.0001) %MON trcstat_ptracer19_sd         =   6.2913671948237202E+01
(PID.TID 0000.0001) %MON trcstat_ptracer19_del2       =   3.5590773060115827E-03
(PID.TID 0000.0001) %MON trcstat_ptracer20_max        =   8.0626979295470014E-01
(PID.TID 0000.0001) %MON trcstat_ptracer20_min        =   2.7975415433882332E-06
(PID.TID 0000.0001) %MON trcstat_ptracer20_mean       =   1.0941710953733894E-03
(PID.TID 0000.0001) %MON trcstat_ptracer20_sd         =   9.2125265080791781E-03
(PID.TID 0000.0001) %MON trcstat_ptracer20_del2       =   1.0378246283724418E-05
(PID.TID 0000.0001) %MON trcstat_ptracer21_max        =   8.0836526152368104E-01
(PID.TID 0000.0001) %MON trcstat_ptracer21_min        =   2.8461204207829207E-06
(PID.TID 0000.0001) %MON trcstat_ptracer21_mean       =   1.0942278999675854E-03
(PID.TID 0000.0001) %MON trcstat_ptracer21_sd         =   9.2144415230215725E-03
(PID.TID 0000.0001) %MON trcstat_ptracer21_del2       =   1.0387091597686005E-05
(PID.TID 0000.0001) %MON trcstat_ptracer22_max        =   8.1015060909944880E-01
(PID.TID 0000.0001) %MON trcstat_ptracer22_min        =   2.9140091179778639E-06
(PID.TID 0000.0001) %MON trcstat_ptracer22_mean       =   1.0942749222235982E-03
(PID.TID 0000.0001) %MON trcstat_ptracer22_sd         =   9.2159761412808801E-03
(PID.TID 0000.0001) %MON trcstat_ptracer22_del2       =   1.0394267303692107E-05
(PID.TID 0000.0001) %MON trcstat_ptracer23_max        =   8.1169941071487117E-01
(PID.TID 0000.0001) %MON trcstat_ptracer23_min        =   3.0088831754695957E-06
(PID.TID 0000.0001) %MON trcstat_ptracer23_mean       =   1.0943138467611536E-03
(PID.TID 0000.0001) %MON trcstat_ptracer23_sd         =   9.2171751867818202E-03
(PID.TID 0000.0001) %MON trcstat_ptracer23_del2       =   1.0399996704346791E-05
(PID.TID 0000.0001) %MON trcstat_ptracer24_max        =   8.1281346099990062E-02
(PID.TID 0000.0001) %MON trcstat_ptracer24_min        =   3.1414691162352822E-07
(PID.TID 0000.0001) %MON trcstat_ptracer24_mean       =   1.0943340253707712E-04
(PID.TID 0000.0001) %MON trcstat_ptracer24_sd         =   9.2176777625185803E-04
(PID.TID 0000.0001) %MON trcstat_ptracer24_del2       =   1.0402840863342783E-06
(PID.TID 0000.0001) %MON trcstat_ptracer25_max        =   8.1281346099990071E-01
(PID.TID 0000.0001) %MON trcstat_ptracer25_min        =   3.1414691162352233E-06
(PID.TID 0000.0001) %MON trcstat_ptracer25_mean       =   1.0943340253707712E-03
(PID.TID 0000.0001) %MON trcstat_ptracer25_sd         =   9.2176777625185974E-03
(PID.TID 0000.0001) %MON trcstat_ptracer25_del2       =   1.0402840863342769E-05
(PID.TID 0000.0001) %MON trcstat_ptracer26_max        =   9.2002731311723440E-01
(PID.TID 0000.0001) %MON trcstat_ptracer26_min        =   3.3267571934341316E-06
(PID.TID 0000.0001) %MON trcstat_ptracer26_mean       =   1.1681282324657652E-03
(PID.TID 0000.0001) %MON trcstat_ptracer26_sd         =   9.6679165100071948E-03
(PID.TID 0000.0001) %MON trcstat_ptracer26_del2       =   1.0842726267803728E-05
(PID.TID 0000.0001) %MON trcstat_ptracer27_max        =   8.1304778885949627E-02
(PID.TID 0000.0001) %MON trcstat_ptracer27_min        =   3.3267571934341905E-07
(PID.TID 0000.0001) %MON trcstat_ptracer27_mean       =   1.0942829161605621E-04
(PID.TID 0000.0001) %MON trcstat_ptracer27_sd         =   9.2159658384274976E-04
(PID.TID 0000.0001) %MON trcstat_ptracer27_del2       =   1.0397649192119756E-06
(PID.TID 0000.0001) %MON trcstat_ptracer28_max        =   8.1304778885949636E-01
(PID.TID 0000.0001) %MON trcstat_ptracer28_min        =   3.3267571934341320E-06
(PID.TID 0000.0001) %MON trcstat_ptracer28_mean       =   1.0942829161605619E-03
(PID.TID 0000.0001) %MON trcstat_ptracer28_sd         =   9.2159658384275162E-03
(PID.TID 0000.0001) %MON trcstat_ptracer28_del2       =   1.0397649192119747E-05
(PID.TID 0000.0001) %MON trcstat_ptracer29_max        =   9.1614077578594344E-01
(PID.TID 0000.0001) %MON trcstat_ptracer29_min        =   3.5856961982324786E-06
(PID.TID 0000.0001) %MON trcstat_ptracer29_mean       =   1.1650320383878351E-03
(PID.TID 0000.0001) %MON trcstat_ptracer29_sd         =   9.6486164768136706E-03
(PID.TID 0000.0001) %MON trcstat_ptracer29_del2       =   1.0820974860581267E-05
(PID.TID 0000.0001) %MON trcstat_ptracer30_max        =   8.1452877910664884E-02
(PID.TID 0000.0001) %MON trcstat_ptracer30_min        =   3.5856961982325372E-07
(PID.TID 0000.0001) %MON trcstat_ptracer30_mean       =   1.0943204640595603E-04
(PID.TID 0000.0001) %MON trcstat_ptracer30_sd         =   9.2167313892687437E-04
(PID.TID 0000.0001) %MON trcstat_ptracer30_del2       =   1.0401491191549539E-06
(PID.TID 0000.0001) %MON trcstat_ptracer31_max        =   8.1452877910664889E-01
(PID.TID 0000.0001) %MON trcstat_ptracer31_min        =   3.5856961982324786E-06
(PID.TID 0000.0001) %MON trcstat_ptracer31_mean       =   1.0943204640595581E-03
(PID.TID 0000.0001) %MON trcstat_ptracer31_sd         =   9.2167313892687446E-03
(PID.TID 0000.0001) %MON trcstat_ptracer31_del2       =   1.0401491191549553E-05
(PID.TID 0000.0001) %MON trcstat_ptracer32_max        =   9.0843640028171979E-01
(PID.TID 0000.0001) %MON trcstat_ptracer32_min        =   3.9475619438300218E-06
(PID.TID 0000.0001) %MON trcstat_ptracer32_mean       =   1.1587206770171028E-03
(PID.TID 0000.0001) %MON trcstat_ptracer32_sd         =   9.6084333818101039E-03
(PID.TID 0000.0001) %MON trcstat_ptracer32_del2       =   1.0780466085700505E-05
(PID.TID 0000.0001) %MON trcstat_ptracer33_max        =   8.1602518778939481E-02
(PID.TID 0000.0001) %MON trcstat_ptracer33_min        =   3.9475619438300811E-07
(PID.TID 0000.0001) %MON trcstat_ptracer33_mean       =   1.0943515458223004E-04
(PID.TID 0000.0001) %MON trcstat_ptracer33_sd         =   9.2170933001258014E-04
(PID.TID 0000.0001) %MON trcstat_ptracer33_del2       =   1.0403857637394800E-06
(PID.TID 0000.0001) %MON trcstat_ptracer34_max        =   8.1602518778939492E-01
(PID.TID 0000.0001) %MON trcstat_ptracer34_min        =   3.9475619438300218E-06
(PID.TID 0000.0001) %MON trcstat_ptracer34_mean       =   1.0943515458222974E-03
(PID.TID 0000.0001) %MON trcstat_ptracer34_sd         =   9.2170933001258122E-03
(PID.TID 0000.0001) %MON trcstat_ptracer34_del2       =   1.0403857637394803E-05
(PID.TID 0000.0001) %MON trcstat_ptracer35_max        =   9.0000286568631982E-01
(PID.TID 0000.0001) %MON trcstat_ptracer35_min        =   4.4532672080440659E-06
(PID.TID 0000.0001) %MON trcstat_ptracer35_mean       =   1.1526828782431986E-03
(PID.TID 0000.0001) %MON trcstat_ptracer35_sd         =   9.5700153096960408E-03
(PID.TID 0000.0001) %MON trcstat_ptracer35_del2       =   1.0741063761755254E-05
(PID.TID 0000.0001) %MON trcstat_ptracer36_max        =   8.1764186606693962E-02
(PID.TID 0000.0001) %MON trcstat_ptracer36_min        =   4.4532672080441241E-07
(PID.TID 0000.0001) %MON trcstat_ptracer36_mean       =   1.0943772749842698E-04
(PID.TID 0000.0001) %MON trcstat_ptracer36_sd         =   9.2170144338136670E-04
(PID.TID 0000.0001) %MON trcstat_ptracer36_del2       =   1.0404684726143585E-06
(PID.TID 0000.0001) %MON trcstat_ptracer37_max        =   8.1764186606693967E-01
(PID.TID 0000.0001) %MON trcstat_ptracer37_min        =   4.4532672080440659E-06
(PID.TID 0000.0001) %MON trcstat_ptracer37_mean       =   1.0943772749842694E-03
(PID.TID 0000.0001) %MON trcstat_ptracer37_sd         =   9.2170144338136611E-03
(PID.TID 0000.0001) %MON trcstat_ptracer37_del2       =   1.0404684726143560E-05
(PID.TID 0000.0001) %MON trcstat_ptracer38_max        =   8.9085022093835842E-01
(PID.TID 0000.0001) %MON trcstat_ptracer38_min        =   5.0402391613870768E-06
(PID.TID 0000.0001) %MON trcstat_ptracer38_mean       =   1.1469648089700725E-03
(PID.TID 0000.0001) %MON trcstat_ptracer38_sd         =   9.5335344091954273E-03
(PID.TID 0000.0001) %MON trcstat_ptracer38_del2       =   1.0703040091355914E-05
(PID.TID 0000.0001) %MON trcstat_ptracer39_max        =   8.1952950462111518E-01
(PID.TID 0000.0001) %MON trcstat_ptracer39_min        =   4.7457880508828989E-06
(PID.TID 0000.0001) %MON trcstat_ptracer39_mean       =   1.0944016775321064E-03
(PID.TID 0000.0001) %MON trcstat_ptracer39_sd         =   9.2165081441963632E-03
(PID.TID 0000.0001) %MON trcstat_ptracer39_del2       =   1.0404073344256528E-05
(PID.TID 0000.0001) %MON trcstat_ptracer40_max        =   8.8135276966987797E-01
(PID.TID 0000.0001) %MON trcstat_ptracer40_min        =   5.0008919074412553E-06
(PID.TID 0000.0001) %MON trcstat_ptracer40_mean       =   1.1416231685935029E-03
(PID.TID 0000.0001) %MON trcstat_ptracer40_sd         =   9.4997619252707617E-03
(PID.TID 0000.0001) %MON trcstat_ptracer40_del2       =   1.0669273023206256E-05
(PID.TID 0000.0001) %MON trcstat_ptracer41_max        =   8.7029765694618555E-01
(PID.TID 0000.0001) %MON trcstat_ptracer41_min        =   4.9674119071449411E-06
(PID.TID 0000.0001) %MON trcstat_ptracer41_mean       =   1.1366113519022569E-03
(PID.TID 0000.0001) %MON trcstat_ptracer41_sd         =   9.4665393982759343E-03
(PID.TID 0000.0001) %MON trcstat_ptracer41_del2       =   1.0631585417103129E-05
(PID.TID 0000.0001) %MON trcstat_ptracer42_max        =   8.5797459257153741E-01
(PID.TID 0000.0001) %MON trcstat_ptracer42_min        =   4.9399751530968710E-06
(PID.TID 0000.0001) %MON trcstat_ptracer42_mean       =   1.1319781377446719E-03
(PID.TID 0000.0001) %MON trcstat_ptracer42_sd         =   9.4347874379194993E-03
(PID.TID 0000.0001) %MON trcstat_ptracer42_del2       =   1.0593724637076572E-05
(PID.TID 0000.0001) %MON trcstat_ptracer43_max        =   8.4388769277884057E-01
(PID.TID 0000.0001) %MON trcstat_ptracer43_min        =   4.9187954695233459E-06
(PID.TID 0000.0001) %MON trcstat_ptracer43_mean       =   1.1277246551348638E-03
(PID.TID 0000.0001) %MON trcstat_ptracer43_sd         =   9.4041203973777212E-03
(PID.TID 0000.0001) %MON trcstat_ptracer43_del2       =   1.0554702838779012E-05
(PID.TID 0000.0001) %MON trcstat_ptracer44_max        =   8.2314219373316511E-01
(PID.TID 0000.0001) %MON trcstat_ptracer44_min        =   2.5229506466523870E-06
(PID.TID 0000.0001) %MON trcstat_ptracer44_mean       =   1.1046394513441113E-03
(PID.TID 0000.0001) %MON trcstat_ptracer44_sd         =   9.2949367659718746E-03
(PID.TID 0000.0001) %MON trcstat_ptracer44_del2       =   1.0500072672407093E-05
(PID.TID 0000.0001) %MON trcstat_ptracer45_max        =   8.2305486616028511E-01
(PID.TID 0000.0001) %MON trcstat_ptracer45_min        =   2.5229506466523858E-06
(PID.TID 0000.0001) %MON trcstat_ptracer45_mean       =   1.1046369789573154E-03
(PID.TID 0000.0001) %MON trcstat_ptracer45_sd         =   9.2948491562789472E-03
(PID.TID 0000.0001) %MON trcstat_ptracer45_del2       =   1.0499673121227452E-05
(PID.TID 0000.0001) %MON trcstat_ptracer46_max        =   8.2298257729797020E-01
(PID.TID 0000.0001) %MON trcstat_ptracer46_min        =   2.5229506466523845E-06
(PID.TID 0000.0001) %MON trcstat_ptracer46_mean       =   1.1046349323410776E-03
(PID.TID 0000.0001) %MON trcstat_ptracer46_sd         =   9.2947766355146785E-03
(PID.TID 0000.0001) %MON trcstat_ptracer46_del2       =   1.0499342393285335E-05
(PID.TID 0000.0001) %MON trcstat_ptracer47_max        =   8.2292273732483856E-01
(PID.TID 0000.0001) %MON trcstat_ptracer47_min        =   2.5229506466523836E-06
(PID.TID 0000.0001) %MON trcstat_ptracer47_mean       =   1.1046332381733069E-03
(PID.TID 0000.0001) %MON trcstat_ptracer47_sd         =   9.2947166046952641E-03
(PID.TID 0000.0001) %MON trcstat_ptracer47_del2       =   1.0499068631348474E-05
(PID.TID 0000.0001) %MON trcstat_ptracer48_max        =   8.2290980231950972E-01
(PID.TID 0000.0001) %MON trcstat_ptracer48_min        =   2.5229506466523836E-06
(PID.TID 0000.0001) %MON trcstat_ptracer48_mean       =   1.1046330864463297E-03
(PID.TID 0000.0001) %MON trcstat_ptracer48_sd         =   9.2947095136854136E-03
(PID.TID 0000.0001) %MON trcstat_ptracer48_del2       =   1.0499027834747091E-05
(PID.TID 0000.0001) %MON trcstat_ptracer49_max        =   8.2316916761766223E-01
(PID.TID 0000.0001) %MON trcstat_ptracer49_min        =   2.5229506466523934E-06
(PID.TID 0000.0001) %MON trcstat_ptracer49_mean       =   1.1046450232455010E-03
(PID.TID 0000.0001) %MON trcstat_ptracer49_sd         =   9.2950907243956830E-03
(PID.TID 0000.0001) %MON trcstat_ptracer49_del2       =   1.0500568184795240E-05
(PID.TID 0000.0001) %MON trcstat_ptracer50_max        =   8.2307719486310149E-01
(PID.TID 0000.0001) %MON trcstat_ptracer50_min        =   2.5229506466523908E-06
(PID.TID 0000.0001) %MON trcstat_ptracer50_mean       =   1.1046415913197011E-03
(PID.TID 0000.0001) %MON trcstat_ptracer50_sd         =   9.2949765990999987E-03
(PID.TID 0000.0001) %MON trcstat_ptracer50_del2       =   1.0500083288663902E-05
(PID.TID 0000.0001) %MON trcstat_ptracer51_max        =   8.2300106076739832E-01
(PID.TID 0000.0001) %MON trcstat_ptracer51_min        =   2.5229506466523887E-06
(PID.TID 0000.0001) %MON trcstat_ptracer51_mean       =   1.1046387504069916E-03
(PID.TID 0000.0001) %MON trcstat_ptracer51_sd         =   9.2948821297400737E-03
(PID.TID 0000.0001) %MON trcstat_ptracer51_del2       =   1.0499681917016792E-05
(PID.TID 0000.0001) %MON trcstat_ptracer52_max        =   8.2293803774980778E-01
(PID.TID 0000.0001) %MON trcstat_ptracer52_min        =   2.5229506466523870E-06
(PID.TID 0000.0001) %MON trcstat_ptracer52_mean       =   1.1046363987288128E-03
(PID.TID 0000.0001) %MON trcstat_ptracer52_sd         =   9.2948039306113943E-03
(PID.TID 0000.0001) %MON trcstat_ptracer52_del2       =   1.0499349679667779E-05
(PID.TID 0000.0001) %MON trcstat_ptracer53_max        =   8.2287208419870006E-01
(PID.TID 0000.0001) %MON trcstat_ptracer53_min        =   2.5229506466523849E-06
(PID.TID 0000.0001) %MON trcstat_ptracer53_mean       =   1.1046337362217099E-03
(PID.TID 0000.0001) %MON trcstat_ptracer53_sd         =   9.2947169791080739E-03
(PID.TID 0000.0001) %MON trcstat_ptracer53_del2       =   1.0498987947476784E-05
(PID.TID 0000.0001) %MON trcstat_ptracer54_max        =   8.2271170658979986E-01
(PID.TID 0000.0001) %MON trcstat_ptracer54_min        =   2.5229506466523803E-06
(PID.TID 0000.0001) %MON trcstat_ptracer54_mean       =   1.1046272635471292E-03
(PID.TID 0000.0001) %MON trcstat_ptracer54_sd         =   9.2945049090204634E-03
(PID.TID 0000.0001) %MON trcstat_ptracer54_del2       =   1.0498103267926262E-05
(PID.TID 0000.0001) %MON trcstat_ptracer55_max        =   8.2269851335201638E-01
(PID.TID 0000.0001) %MON trcstat_ptracer55_min        =   2.5229506466523798E-06
(PID.TID 0000.0001) %MON trcstat_ptracer55_mean       =   1.1046268900249325E-03
(PID.TID 0000.0001) %MON trcstat_ptracer55_sd         =   9.2944916746309104E-03
(PID.TID 0000.0001) %MON trcstat_ptracer55_del2       =   1.0498042919457110E-05
(PID.TID 0000.0001) %MON trcstat_ptracer56_max        =   8.2268759212612896E-01
(PID.TID 0000.0001) %MON trcstat_ptracer56_min        =   2.5229506466523798E-06
(PID.TID 0000.0001) %MON trcstat_ptracer56_mean       =   1.1046265808271180E-03
(PID.TID 0000.0001) %MON trcstat_ptracer56_sd         =   9.2944807193773085E-03
(PID.TID 0000.0001) %MON trcstat_ptracer56_del2       =   1.0497992963992407E-05
(PID.TID 0000.0001) %MON trcstat_ptracer57_max        =   8.2267855164820836E-01
(PID.TID 0000.0001) %MON trcstat_ptracer57_min        =   2.5229506466523794E-06
(PID.TID 0000.0001) %MON trcstat_ptracer57_mean       =   1.1046263248763613E-03
(PID.TID 0000.0001) %MON trcstat_ptracer57_sd         =   9.2944716507571690E-03
(PID.TID 0000.0001) %MON trcstat_ptracer57_del2       =   1.0497951611631562E-05
(PID.TID 0000.0001) %MON trcstat_ptracer58_max        =   2.0338536798011678E-01
(PID.TID 0000.0001) %MON trcstat_ptracer58_min        =   6.3139156563496576E-07
(PID.TID 0000.0001) %MON trcstat_ptracer58_mean       =   2.7158313754485977E-04
(PID.TID 0000.0001) %MON trcstat_ptracer58_sd         =   2.3704438651178310E-03
(PID.TID 0000.0001) %MON trcstat_ptracer58_del2       =   2.6980587671709394E-06
(PID.TID 0000.0001) %MON trcstat_ptracer59_max        =   1.6075234163942420E-01
(PID.TID 0000.0001) %MON trcstat_ptracer59_min        =   5.5774817011462845E-07
(PID.TID 0000.0001) %MON trcstat_ptracer59_mean       =   2.2015817882778337E-04
(PID.TID 0000.0001) %MON trcstat_ptracer59_sd         =   1.9029884183960840E-03
(PID.TID 0000.0001) %MON trcstat_ptracer59_del2       =   2.1500491512330406E-06
(PID.TID 0000.0001) %MON trcstat_ptracer60_max        =   1.3409295121277204E-01
(PID.TID 0000.0001) %MON trcstat_ptracer60_min        =   4.9132459796165221E-07
(PID.TID 0000.0001) %MON trcstat_ptracer60_mean       =   1.8796565386853053E-04
(PID.TID 0000.0001) %MON trcstat_ptracer60_sd         =   1.6109211013594035E-03
(PID.TID 0000.0001) %MON trcstat_ptracer60_del2       =   1.8144264072997920E-06
(PID.TID 0000.0001) %MON trcstat_ptracer61_max        =   1.1954452854978129E-01
(PID.TID 0000.0001) %MON trcstat_ptracer61_min        =   4.5714859892116753E-07
(PID.TID 0000.0001) %MON trcstat_ptracer61_mean       =   1.6820588286185298E-04
(PID.TID 0000.0001) %MON trcstat_ptracer61_sd         =   1.4318515678178561E-03
(PID.TID 0000.0001) %MON trcstat_ptracer61_del2       =   1.6123925778084215E-06
(PID.TID 0000.0001) %MON trcstat_ptracer62_max        =   2.7093782033330023E-02
(PID.TID 0000.0001) %MON trcstat_ptracer62_min        =   1.0471563720784282E-07
(PID.TID 0000.0001) %MON trcstat_ptracer62_mean       =   3.6477800845692458E-05
(PID.TID 0000.0001) %MON trcstat_ptracer62_sd         =   3.0725592541728586E-04
(PID.TID 0000.0001) %MON trcstat_ptracer62_del2       =   3.4676136211142568E-07
(PID.TID 0000.0001) %MON trcstat_ptracer63_max        =   1.1351044849128690E-01
(PID.TID 0000.0001) %MON trcstat_ptracer63_min        =   4.4603951921886499E-07
(PID.TID 0000.0001) %MON trcstat_ptracer63_mean       =   1.5637395884360300E-04
(PID.TID 0000.0001) %MON trcstat_ptracer63_sd         =   1.3245070407900848E-03
(PID.TID 0000.0001) %MON trcstat_ptracer63_del2       =   1.4927804736201985E-06
(PID.TID 0000.0001) %MON trcstat_ptracer64_max        =   1.1008772662334074E-01
(PID.TID 0000.0001) %MON trcstat_ptracer64_min        =   4.5332525558472346E-07
(PID.TID 0000.0001) %MON trcstat_ptracer64_mean       =   1.4951372254264078E-04
(PID.TID 0000.0001) %MON trcstat_ptracer64_sd         =   1.2618636078788779E-03
(PID.TID 0000.0001) %MON trcstat_ptracer64_del2       =   1.4228793435112681E-06
(PID.TID 0000.0001) %MON trcstat_ptracer65_max        =   2.7101592961983209E-02
(PID.TID 0000.0001) %MON trcstat_ptracer65_min        =   1.1089190644780643E-07
(PID.TID 0000.0001) %MON trcstat_ptracer65_mean       =   3.6476097205352120E-05
(PID.TID 0000.0001) %MON trcstat_ptracer65_sd         =   3.0719886128091709E-04
(PID.TID 0000.0001) %MON trcstat_ptracer65_del2       =   3.4658830640399139E-07
(PID.TID 0000.0001) %MON trcstat_ptracer66_max        =   1.1008772662334074E-01
(PID.TID 0000.0001) %MON trcstat_ptracer66_min        =   4.5332525558472351E-07
(PID.TID 0000.0001) %MON trcstat_ptracer66_mean       =   1.4951372254264078E-04
(PID.TID 0000.0001) %MON trcstat_ptracer66_sd         =   1.2618636078788779E-03
(PID.TID 0000.0001) %MON trcstat_ptracer66_del2       =   1.4228793435112681E-06
(PID.TID 0000.0001) %MON trcstat_ptracer67_max        =   1.0860383721421984E-01
(PID.TID 0000.0001) %MON trcstat_ptracer67_min        =   4.7809282643099709E-07
(PID.TID 0000.0001) %MON trcstat_ptracer67_mean       =   1.4590939520794165E-04
(PID.TID 0000.0001) %MON trcstat_ptracer67_sd         =   1.2288975185691666E-03
(PID.TID 0000.0001) %MON trcstat_ptracer67_del2       =   1.3868654922066055E-06
(PID.TID 0000.0001) %MON trcstat_ptracer68_max        =   2.7150959303554961E-02
(PID.TID 0000.0001) %MON trcstat_ptracer68_min        =   1.1952320660775131E-07
(PID.TID 0000.0001) %MON trcstat_ptracer68_mean       =   3.6477348801985413E-05
(PID.TID 0000.0001) %MON trcstat_ptracer68_sd         =   3.0722437964229165E-04
(PID.TID 0000.0001) %MON trcstat_ptracer68_del2       =   3.4671637305165143E-07
(PID.TID 0000.0001) %MON trcstat_ptracer69_max        =   1.0860383721421984E-01
(PID.TID 0000.0001) %MON trcstat_ptracer69_min        =   4.7809282643099709E-07
(PID.TID 0000.0001) %MON trcstat_ptracer69_mean       =   1.4590939520794165E-04
(PID.TID 0000.0001) %MON trcstat_ptracer69_sd         =   1.2288975185691666E-03
(PID.TID 0000.0001) %MON trcstat_ptracer69_del2       =   1.3868654922066055E-06
(PID.TID 0000.0001) %MON trcstat_ptracer70_max        =   1.0880335837191932E-01
(PID.TID 0000.0001) %MON trcstat_ptracer70_min        =   5.2634159251066954E-07
(PID.TID 0000.0001) %MON trcstat_ptracer70_mean       =   1.4591353944297332E-04
(PID.TID 0000.0001) %MON trcstat_ptracer70_sd         =   1.2289457733501079E-03
(PID.TID 0000.0001) %MON trcstat_ptracer70_del2       =   1.3871810183193058E-06
(PID.TID 0000.0001) %MON trcstat_ptracer71_max        =   2.7200839592979829E-02
(PID.TID 0000.0001) %MON trcstat_ptracer71_min        =   1.3158539812766942E-07
(PID.TID 0000.0001) %MON trcstat_ptracer71_mean       =   3.6478384860743330E-05
(PID.TID 0000.0001) %MON trcstat_ptracer71_sd         =   3.0723644333752697E-04
(PID.TID 0000.0001) %MON trcstat_ptracer71_del2       =   3.4679525457982645E-07
(PID.TID 0000.0001) %MON trcstat_ptracer72_max        =   1.0880335837191932E-01
(PID.TID 0000.0001) %MON trcstat_ptracer72_min        =   5.2634159251066954E-07
(PID.TID 0000.0001) %MON trcstat_ptracer72_mean       =   1.4591353944297332E-04
(PID.TID 0000.0001) %MON trcstat_ptracer72_sd         =   1.2289457733501079E-03
(PID.TID 0000.0001) %MON trcstat_ptracer72_del2       =   1.3871810183193058E-06
(PID.TID 0000.0001) %MON trcstat_ptracer73_max        =   1.0901891547559195E-01
(PID.TID 0000.0001) %MON trcstat_ptracer73_min        =   5.9376896107254201E-07
(PID.TID 0000.0001) %MON trcstat_ptracer73_mean       =   1.4591696999790302E-04
(PID.TID 0000.0001) %MON trcstat_ptracer73_sd         =   1.2289352578418223E-03
(PID.TID 0000.0001) %MON trcstat_ptracer73_del2       =   1.3872912968191448E-06
(PID.TID 0000.0001) %MON trcstat_ptracer74_max        =   2.7254728868897987E-02
(PID.TID 0000.0001) %MON trcstat_ptracer74_min        =   1.4844224026813754E-07
(PID.TID 0000.0001) %MON trcstat_ptracer74_mean       =   3.6479242499475755E-05
(PID.TID 0000.0001) %MON trcstat_ptracer74_sd         =   3.0723381446045558E-04
(PID.TID 0000.0001) %MON trcstat_ptracer74_del2       =   3.4682282420478621E-07
(PID.TID 0000.0001) %MON trcstat_ptracer75_max        =   1.0901891547559195E-01
(PID.TID 0000.0001) %MON trcstat_ptracer75_min        =   5.9376896107254201E-07
(PID.TID 0000.0001) %MON trcstat_ptracer75_mean       =   1.4591696999790302E-04
(PID.TID 0000.0001) %MON trcstat_ptracer75_sd         =   1.2289352578418223E-03
(PID.TID 0000.0001) %MON trcstat_ptracer75_del2       =   1.3872912968191448E-06
(PID.TID 0000.0001) %MON trcstat_ptracer76_max        =   1.0927060061614868E-01
(PID.TID 0000.0001) %MON trcstat_ptracer76_min        =   6.3277174011772020E-07
(PID.TID 0000.0001) %MON trcstat_ptracer76_mean       =   1.4592022367094809E-04
(PID.TID 0000.0001) %MON trcstat_ptracer76_sd         =   1.2288677525595154E-03
(PID.TID 0000.0001) %MON trcstat_ptracer76_del2       =   1.3872097792342030E-06
(PID.TID 0000.0001) %MON trcstat_ptracer77_max        =   1.0927060061614868E-01
(PID.TID 0000.0001) %MON trcstat_ptracer77_min        =   6.3277174011772020E-07
(PID.TID 0000.0001) %MON trcstat_ptracer77_mean       =   1.4592022367094809E-04
(PID.TID 0000.0001) %MON trcstat_ptracer77_sd         =   1.2288677525595154E-03
(PID.TID 0000.0001) %MON trcstat_ptracer77_del2       =   1.3872097792342030E-06
(PID.TID 0000.0001) %MON trcstat_ptracer78_max        =   1.0964033699731129E-01
(PID.TID 0000.0001) %MON trcstat_ptracer78_min        =   6.3310318386513365E-07
(PID.TID 0000.0001) %MON trcstat_ptracer78_mean       =   1.4592681565875215E-04
(PID.TID 0000.0001) %MON trcstat_ptracer78_sd         =   1.2288340584448907E-03
(PID.TID 0000.0001) %MON trcstat_ptracer78_del2       =   1.3873089351237038E-06
(PID.TID 0000.0001) %MON trcstat_ptracer79_max        =   1.1001815139789636E-01
(PID.TID 0000.0001) %MON trcstat_ptracer79_min        =   6.3356637456467065E-07
(PID.TID 0000.0001) %MON trcstat_ptracer79_mean       =   1.4592795991211720E-04
(PID.TID 0000.0001) %MON trcstat_ptracer79_sd         =   1.2285412288307559E-03
(PID.TID 0000.0001) %MON trcstat_ptracer79_del2       =   1.3865034513215433E-06
(PID.TID 0000.0001) %MON trcstat_ptracer80_max        =   1.1052311943380319E-01
(PID.TID 0000.0001) %MON trcstat_ptracer80_min        =   6.3421368085972528E-07
(PID.TID 0000.0001) %MON trcstat_ptracer80_mean       =   1.4592890711322712E-04
(PID.TID 0000.0001) %MON trcstat_ptracer80_sd         =   1.2281143299839896E-03
(PID.TID 0000.0001) %MON trcstat_ptracer80_del2       =   1.3852976383749914E-06
(PID.TID 0000.0001) %MON trcstat_ptracer81_max        =   1.1120974914027791E-01
(PID.TID 0000.0001) %MON trcstat_ptracer81_min        =   6.3511828762328297E-07
(PID.TID 0000.0001) %MON trcstat_ptracer81_mean       =   1.4592969119651679E-04
(PID.TID 0000.0001) %MON trcstat_ptracer81_sd         =   1.2275092018339733E-03
(PID.TID 0000.0001) %MON trcstat_ptracer81_del2       =   1.3835745071573706E-06
(PID.TID 0000.0001) %MON trcstat_ptracer82_max        =   1.1017287197452029E-01
(PID.TID 0000.0001) %MON trcstat_ptracer82_min        =   3.3639341955365866E-07
(PID.TID 0000.0001) %MON trcstat_ptracer82_mean       =   1.4729716747390780E-04
(PID.TID 0000.0001) %MON trcstat_ptracer82_sd         =   1.2397470333426015E-03
(PID.TID 0000.0001) %MON trcstat_ptracer82_del2       =   1.4019359078102518E-06
(PID.TID 0000.0001) %MON trcstat_ptracer83_max        =   1.1000243024778705E-01
(PID.TID 0000.0001) %MON trcstat_ptracer83_min        =   3.3639341955365580E-07
(PID.TID 0000.0001) %MON trcstat_ptracer83_mean       =   1.4729234198911751E-04
(PID.TID 0000.0001) %MON trcstat_ptracer83_sd         =   1.2395759175096678E-03
(PID.TID 0000.0001) %MON trcstat_ptracer83_del2       =   1.4011548459314707E-06
(PID.TID 0000.0001) %MON trcstat_ptracer84_max        =   1.0986810205518932E-01
(PID.TID 0000.0001) %MON trcstat_ptracer84_min        =   3.3639341955365358E-07
(PID.TID 0000.0001) %MON trcstat_ptracer84_mean       =   1.4728853893770106E-04
(PID.TID 0000.0001) %MON trcstat_ptracer84_sd         =   1.2394411014968296E-03
(PID.TID 0000.0001) %MON trcstat_ptracer84_del2       =   1.4005397121206883E-06
(PID.TID 0000.0001) %MON trcstat_ptracer85_max        =   1.0976261850281566E-01
(PID.TID 0000.0001) %MON trcstat_ptracer85_min        =   3.3639341955365183E-07
(PID.TID 0000.0001) %MON trcstat_ptracer85_mean       =   1.4728555252535141E-04
(PID.TID 0000.0001) %MON trcstat_ptracer85_sd         =   1.2393352617347385E-03
(PID.TID 0000.0001) %MON trcstat_ptracer85_del2       =   1.4000569368004881E-06
(PID.TID 0000.0001) %MON trcstat_ptracer86_max        =   1.0968467938733500E-01
(PID.TID 0000.0001) %MON trcstat_ptracer86_min        =   3.3639341955365056E-07
(PID.TID 0000.0001) %MON trcstat_ptracer86_mean       =   1.4728334594118036E-04
(PID.TID 0000.0001) %MON trcstat_ptracer86_sd         =   1.2392570746082069E-03
(PID.TID 0000.0001) %MON trcstat_ptracer86_del2       =   1.3997003786905102E-06
(PID.TID 0000.0001) %MON trcstat_ptracer87_max        =   1.0968467938733500E-01
(PID.TID 0000.0001) %MON trcstat_ptracer87_min        =   3.3639341955365056E-07
(PID.TID 0000.0001) %MON trcstat_ptracer87_mean       =   1.4728334594118036E-04
(PID.TID 0000.0001) %MON trcstat_ptracer87_sd         =   1.2392570746082069E-03
(PID.TID 0000.0001) %MON trcstat_ptracer87_del2       =   1.3997003786905102E-06
(PID.TID 0000.0001) %MON trcstat_ptracer88_max        =   1.0968467938733500E-01
(PID.TID 0000.0001) %MON trcstat_ptracer88_min        =   3.3639341955365056E-07
(PID.TID 0000.0001) %MON trcstat_ptracer88_mean       =   1.4728334594118036E-04
(PID.TID 0000.0001) %MON trcstat_ptracer88_sd         =   1.2392570746082069E-03
(PID.TID 0000.0001) %MON trcstat_ptracer88_del2       =   1.3997003786905102E-06
(PID.TID 0000.0001) %MON trcstat_ptracer89_max        =   1.0968467938733500E-01
(PID.TID 0000.0001) %MON trcstat_ptracer89_min        =   3.3639341955365056E-07
(PID.TID 0000.0001) %MON trcstat_ptracer89_mean       =   1.4728334594118036E-04
(PID.TID 0000.0001) %MON trcstat_ptracer89_sd         =   1.2392570746082069E-03
(PID.TID 0000.0001) %MON trcstat_ptracer89_del2       =   1.3997003786905102E-06
(PID.TID 0000.0001) %MON trcstat_ptracer90_max        =   1.0968467938733500E-01
(PID.TID 0000.0001) %MON trcstat_ptracer90_min        =   3.3639341955365056E-07
(PID.TID 0000.0001) %MON trcstat_ptracer90_mean       =   1.4728334594118036E-04
(PID.TID 0000.0001) %MON trcstat_ptracer90_sd         =   1.2392570746082069E-03
(PID.TID 0000.0001) %MON trcstat_ptracer90_del2       =   1.3997003786905102E-06
(PID.TID 0000.0001) %MON trcstat_ptracer91_max        =   1.0968467938733500E-01
(PID.TID 0000.0001) %MON trcstat_ptracer91_min        =   3.3639341955365056E-07
(PID.TID 0000.0001) %MON trcstat_ptracer91_mean       =   1.4728334594118036E-04
(PID.TID 0000.0001) %MON trcstat_ptracer91_sd         =   1.2392570746082069E-03
(PID.TID 0000.0001) %MON trcstat_ptracer91_del2       =   1.3997003786905102E-06
(PID.TID 0000.0001) %MON trcstat_ptracer92_max        =   1.0968467938733500E-01
(PID.TID 0000.0001) %MON trcstat_ptracer92_min        =   3.3639341955365056E-07
(PID.TID 0000.0001) %MON trcstat_ptracer92_mean       =   1.4728334594118036E-04
(PID.TID 0000.0001) %MON trcstat_ptracer92_sd         =   1.2392570746082069E-03
(PID.TID 0000.0001) %MON trcstat_ptracer92_del2       =   1.3997003786905102E-06
(PID.TID 0000.0001) %MON trcstat_ptracer93_max        =   1.0968467938733500E-01
(PID.TID 0000.0001) %MON trcstat_ptracer93_min        =   3.3639341955365056E-07
(PID.TID 0000.0001) %MON trcstat_ptracer93_mean       =   1.4728334594118036E-04
(PID.TID 0000.0001) %MON trcstat_ptracer93_sd         =   1.2392570746082069E-03
(PID.TID 0000.0001) %MON trcstat_ptracer93_del2       =   1.3997003786905102E-06
(PID.TID 0000.0001) %MON trcstat_ptracer94_max        =   1.0968467938733500E-01
(PID.TID 0000.0001) %MON trcstat_ptracer94_min        =   3.3639341955365056E-07
(PID.TID 0000.0001) %MON trcstat_ptracer94_mean       =   1.4728334594118036E-04
(PID.TID 0000.0001) %MON trcstat_ptracer94_sd         =   1.2392570746082069E-03
(PID.TID 0000.0001) %MON trcstat_ptracer94_del2       =   1.3997003786905102E-06
(PID.TID 0000.0001) %MON trcstat_ptracer95_max        =   1.0968467938733500E-01
(PID.TID 0000.0001) %MON trcstat_ptracer95_min        =   3.3639341955365056E-07
(PID.TID 0000.0001) %MON trcstat_ptracer95_mean       =   1.4728334594118036E-04
(PID.TID 0000.0001) %MON trcstat_ptracer95_sd         =   1.2392570746082069E-03
(PID.TID 0000.0001) %MON trcstat_ptracer95_del2       =   1.3997003786905102E-06
(PID.TID 0000.0001) %MON trcstat_ptracer96_max        =   9.3681341039768464E-03
(PID.TID 0000.0001) %MON trcstat_ptracer96_min        =   3.2882587819571419E-08
(PID.TID 0000.0001) %MON trcstat_ptracer96_mean       =   1.2982977402875119E-05
(PID.TID 0000.0001) %MON trcstat_ptracer96_sd         =   1.0942411538720733E-04
(PID.TID 0000.0001) %MON trcstat_ptracer96_del2       =   1.2327510480282609E-07
(PID.TID 0000.0001) %MON trcstat_ptracer97_max        =   8.5814380273739142E-03
(PID.TID 0000.0001) %MON trcstat_ptracer97_min        =   3.0634625853113319E-08
(PID.TID 0000.0001) %MON trcstat_ptracer97_mean       =   1.1895416509827972E-05
(PID.TID 0000.0001) %MON trcstat_ptracer97_sd         =   1.0027430376320033E-04
(PID.TID 0000.0001) %MON trcstat_ptracer97_del2       =   1.1297531451804288E-07
(PID.TID 0000.0001) %MON trcstat_ptracer98_max        =   8.0193530551357847E-03
(PID.TID 0000.0001) %MON trcstat_ptracer98_min        =   2.9272516454869029E-08
(PID.TID 0000.0001) %MON trcstat_ptracer98_mean       =   1.1106749917262289E-05
(PID.TID 0000.0001) %MON trcstat_ptracer98_sd         =   9.3636801902889587E-05
(PID.TID 0000.0001) %MON trcstat_ptracer98_del2       =   1.0551002250701986E-07
(PID.TID 0000.0001) %MON trcstat_ptracer99_max        =   7.6216610062995582E-03
(PID.TID 0000.0001) %MON trcstat_ptracer99_min        =   2.8662442269957064E-08
(PID.TID 0000.0001) %MON trcstat_ptracer99_mean       =   1.0535666589793776E-05
(PID.TID 0000.0001) %MON trcstat_ptracer99_sd         =   8.8827407185342689E-05
(PID.TID 0000.0001) %MON trcstat_ptracer99_del2       =   1.0010672629804795E-07
(PID.TID 0000.0001) %MON trcstat_ptracer0a_max        =   7.3421962740300144E-04
(PID.TID 0000.0001) %MON trcstat_ptracer0a_min        =   2.8750073472202955E-09
(PID.TID 0000.0001) %MON trcstat_ptracer0a_mean       =   1.0122932237963782E-06
(PID.TID 0000.0001) %MON trcstat_ptracer0a_sd         =   8.5345429546803478E-06
(PID.TID 0000.0001) %MON trcstat_ptracer0a_del2       =   9.6190694396779223E-09
(PID.TID 0000.0001) %MON trcstat_ptracer0b_max        =   7.3421962740300153E-03
(PID.TID 0000.0001) %MON trcstat_ptracer0b_min        =   2.8750073472202461E-08
(PID.TID 0000.0001) %MON trcstat_ptracer0b_mean       =   1.0122932237963803E-05
(PID.TID 0000.0001) %MON trcstat_ptracer0b_sd         =   8.5345429546803363E-05
(PID.TID 0000.0001) %MON trcstat_ptracer0b_del2       =   9.6190694396779210E-08
(PID.TID 0000.0001) %MON trcstat_ptracer0c_max        =   7.1443858227985633E-03
(PID.TID 0000.0001) %MON trcstat_ptracer0c_min        =   2.9555920239562839E-08
(PID.TID 0000.0001) %MON trcstat_ptracer0c_mean       =   9.8250564065232307E-06
(PID.TID 0000.0001) %MON trcstat_ptracer0c_sd         =   8.2816195621485605E-05
(PID.TID 0000.0001) %MON trcstat_ptracer0c_del2       =   9.3309815623069545E-08
(PID.TID 0000.0001) %MON trcstat_ptracer0d_max        =   7.1443858227985635E-04
(PID.TID 0000.0001) %MON trcstat_ptracer0d_min        =   2.9555920239563342E-09
(PID.TID 0000.0001) %MON trcstat_ptracer0d_mean       =   9.8250564065231981E-07
(PID.TID 0000.0001) %MON trcstat_ptracer0d_sd         =   8.2816195621485646E-06
(PID.TID 0000.0001) %MON trcstat_ptracer0d_del2       =   9.3309815623069528E-09
(PID.TID 0000.0001) %MON trcstat_ptracer0e_max        =   7.1443858227985633E-03
(PID.TID 0000.0001) %MON trcstat_ptracer0e_min        =   2.9555920239562842E-08
(PID.TID 0000.0001) %MON trcstat_ptracer0e_mean       =   9.8250564065232324E-06
(PID.TID 0000.0001) %MON trcstat_ptracer0e_sd         =   8.2816195621485605E-05
(PID.TID 0000.0001) %MON trcstat_ptracer0e_del2       =   9.3309815623069545E-08
(PID.TID 0000.0001) %MON trcstat_ptracer0f_max        =   7.0214055665108119E-03
(PID.TID 0000.0001) %MON trcstat_ptracer0f_min        =   3.1178727539995422E-08
(PID.TID 0000.0001) %MON trcstat_ptracer0f_mean       =   9.6119915669758444E-06
(PID.TID 0000.0001) %MON trcstat_ptracer0f_sd         =   8.1014914782706908E-05
(PID.TID 0000.0001) %MON trcstat_ptracer0f_del2       =   9.1307544057914170E-08
(PID.TID 0000.0001) %MON trcstat_ptracer0g_max        =   7.0214055665108121E-04
(PID.TID 0000.0001) %MON trcstat_ptracer0g_min        =   3.1178727539995921E-09
(PID.TID 0000.0001) %MON trcstat_ptracer0g_mean       =   9.6119915669758702E-07
(PID.TID 0000.0001) %MON trcstat_ptracer0g_sd         =   8.1014914782706864E-06
(PID.TID 0000.0001) %MON trcstat_ptracer0g_del2       =   9.1307544057914210E-09
(PID.TID 0000.0001) %MON trcstat_ptracer0h_max        =   7.0214055665108119E-03
(PID.TID 0000.0001) %MON trcstat_ptracer0h_min        =   3.1178727539995422E-08
(PID.TID 0000.0001) %MON trcstat_ptracer0h_mean       =   9.6119915669758444E-06
(PID.TID 0000.0001) %MON trcstat_ptracer0h_sd         =   8.1014914782706908E-05
(PID.TID 0000.0001) %MON trcstat_ptracer0h_del2       =   9.1307544057914170E-08
(PID.TID 0000.0001) %MON trcstat_ptracer0i_max        =   6.9444929993176608E-03
(PID.TID 0000.0001) %MON trcstat_ptracer0i_min        =   3.3807405071031819E-08
(PID.TID 0000.0001) %MON trcstat_ptracer0i_mean       =   9.4600325438782462E-06
(PID.TID 0000.0001) %MON trcstat_ptracer0i_sd         =   7.9725306073249671E-05
(PID.TID 0000.0001) %MON trcstat_ptracer0i_del2       =   8.9878736503304637E-08
(PID.TID 0000.0001) %MON trcstat_ptracer0j_max        =   6.9444929993176614E-04
(PID.TID 0000.0001) %MON trcstat_ptracer0j_min        =   3.3807405071032326E-09
(PID.TID 0000.0001) %MON trcstat_ptracer0j_mean       =   9.4600325438782798E-07
(PID.TID 0000.0001) %MON trcstat_ptracer0j_sd         =   7.9725306073249753E-06
(PID.TID 0000.0001) %MON trcstat_ptracer0j_del2       =   8.9878736503304548E-09
(PID.TID 0000.0001) %MON trcstat_ptracer0k_max        =   6.9444929993176608E-03
(PID.TID 0000.0001) %MON trcstat_ptracer0k_min        =   3.3807405071031819E-08
(PID.TID 0000.0001) %MON trcstat_ptracer0k_mean       =   9.4600325438782462E-06
(PID.TID 0000.0001) %MON trcstat_ptracer0k_sd         =   7.9725306073249671E-05
(PID.TID 0000.0001) %MON trcstat_ptracer0k_del2       =   8.9878736503304637E-08
(PID.TID 0000.0001) %MON trcstat_ptracer0l_max        =   6.9005689027680471E-03
(PID.TID 0000.0001) %MON trcstat_ptracer0l_min        =   3.7742919719674840E-08
(PID.TID 0000.0001) %MON trcstat_ptracer0l_mean       =   9.3524275079375532E-06
(PID.TID 0000.0001) %MON trcstat_ptracer0l_sd         =   7.8806438722748781E-05
(PID.TID 0000.0001) %MON trcstat_ptracer0l_del2       =   8.8863047279030022E-08
(PID.TID 0000.0001) %MON trcstat_ptracer0m_max        =   6.9005689027680473E-04
(PID.TID 0000.0001) %MON trcstat_ptracer0m_min        =   3.7742919719675348E-09
(PID.TID 0000.0001) %MON trcstat_ptracer0m_mean       =   9.3524275079375227E-07
(PID.TID 0000.0001) %MON trcstat_ptracer0m_sd         =   7.8806438722749015E-06
(PID.TID 0000.0001) %MON trcstat_ptracer0m_del2       =   8.8863047279030045E-09
(PID.TID 0000.0001) %MON trcstat_ptracer0n_max        =   6.9005689027680471E-03
(PID.TID 0000.0001) %MON trcstat_ptracer0n_min        =   3.7742919719674840E-08
(PID.TID 0000.0001) %MON trcstat_ptracer0n_mean       =   9.3524275079375532E-06
(PID.TID 0000.0001) %MON trcstat_ptracer0n_sd         =   7.8806438722748781E-05
(PID.TID 0000.0001) %MON trcstat_ptracer0n_del2       =   8.8863047279030022E-08
(PID.TID 0000.0001) %MON trcstat_ptracer0o_max        =   6.8805112347655063E-03
(PID.TID 0000.0001) %MON trcstat_ptracer0o_min        =   4.0413884958075946E-08
(PID.TID 0000.0001) %MON trcstat_ptracer0o_mean       =   9.2769293541518836E-06
(PID.TID 0000.0001) %MON trcstat_ptracer0o_sd         =   7.8155444873331966E-05
(PID.TID 0000.0001) %MON trcstat_ptracer0o_del2       =   8.8143670407642010E-08
(PID.TID 0000.0001) %MON trcstat_ptracer0p_max        =   6.8805112347655063E-03
(PID.TID 0000.0001) %MON trcstat_ptracer0p_min        =   4.0413884958075946E-08
(PID.TID 0000.0001) %MON trcstat_ptracer0p_mean       =   9.2769293541518836E-06
(PID.TID 0000.0001) %MON trcstat_ptracer0p_sd         =   7.8155444873331966E-05
(PID.TID 0000.0001) %MON trcstat_ptracer0p_del2       =   8.8143670407642010E-08
(PID.TID 0000.0001) %MON trcstat_ptracer0q_max        =   6.8819380523260079E-03
(PID.TID 0000.0001) %MON trcstat_ptracer0q_min        =   4.0172763503349659E-08
(PID.TID 0000.0001) %MON trcstat_ptracer0q_mean       =   9.2247531964680520E-06
(PID.TID 0000.0001) %MON trcstat_ptracer0q_sd         =   7.7702477269547528E-05
(PID.TID 0000.0001) %MON trcstat_ptracer0q_del2       =   8.7657090664224772E-08
(PID.TID 0000.0001) %MON trcstat_ptracer0r_max        =   6.8927601064054083E-03
(PID.TID 0000.0001) %MON trcstat_ptracer0r_min        =   4.0013693425475523E-08
(PID.TID 0000.0001) %MON trcstat_ptracer0r_mean       =   9.1887513928472691E-06
(PID.TID 0000.0001) %MON trcstat_ptracer0r_sd         =   7.7373869492474093E-05
(PID.TID 0000.0001) %MON trcstat_ptracer0r_del2       =   8.7271713200053108E-08
(PID.TID 0000.0001) %MON trcstat_ptracer0s_max        =   6.9169481060002477E-03
(PID.TID 0000.0001) %MON trcstat_ptracer0s_min        =   3.9920174501541667E-08
(PID.TID 0000.0001) %MON trcstat_ptracer0s_mean       =   9.1644278790568832E-06
(PID.TID 0000.0001) %MON trcstat_ptracer0s_sd         =   7.7136811534476299E-05
(PID.TID 0000.0001) %MON trcstat_ptracer0s_del2       =   8.6972189518418406E-08
(PID.TID 0000.0001) %MON trcstat_ptracer0t_max        =   6.9556957578303848E-03
(PID.TID 0000.0001) %MON trcstat_ptracer0t_min        =   3.9882324375294739E-08
(PID.TID 0000.0001) %MON trcstat_ptracer0t_mean       =   9.1482728047737351E-06
(PID.TID 0000.0001) %MON trcstat_ptracer0t_sd         =   7.6958853152811179E-05
(PID.TID 0000.0001) %MON trcstat_ptracer0t_del2       =   8.6717212020273809E-08
(PID.TID 0000.0001) %MON trcstat_ptracer0u_max        =   6.8654060843608700E-03
(PID.TID 0000.0001) %MON trcstat_ptracer0u_min        =   2.1024588722103329E-08
(PID.TID 0000.0001) %MON trcstat_ptracer0u_mean       =   9.2054954545663381E-06
(PID.TID 0000.0001) %MON trcstat_ptracer0u_sd         =   7.7463713869349498E-05
(PID.TID 0000.0001) %MON trcstat_ptracer0u_del2       =   8.7527550798627023E-08
(PID.TID 0000.0001) %MON trcstat_ptracer0v_max        =   6.8636644140176077E-03
(PID.TID 0000.0001) %MON trcstat_ptracer0v_min        =   2.1024588722103299E-08
(PID.TID 0000.0001) %MON trcstat_ptracer0v_mean       =   9.2054461450227581E-06
(PID.TID 0000.0001) %MON trcstat_ptracer0v_sd         =   7.7461966253879178E-05
(PID.TID 0000.0001) %MON trcstat_ptracer0v_del2       =   8.7519578913295021E-08
(PID.TID 0000.0001) %MON trcstat_ptracer0w_max        =   6.8622226773073121E-03
(PID.TID 0000.0001) %MON trcstat_ptracer0w_min        =   2.1024588722103276E-08
(PID.TID 0000.0001) %MON trcstat_ptracer0w_mean       =   9.2054053270921948E-06
(PID.TID 0000.0001) %MON trcstat_ptracer0w_sd         =   7.7460519673837688E-05
(PID.TID 0000.0001) %MON trcstat_ptracer0w_del2       =   8.7512980650973385E-08
(PID.TID 0000.0001) %MON trcstat_ptracer0x_max        =   6.8610292225586254E-03
(PID.TID 0000.0001) %MON trcstat_ptracer0x_min        =   2.1024588722103256E-08
(PID.TID 0000.0001) %MON trcstat_ptracer0x_mean       =   9.2053715384311185E-06
(PID.TID 0000.0001) %MON trcstat_ptracer0x_sd         =   7.7459322263269908E-05
(PID.TID 0000.0001) %MON trcstat_ptracer0x_del2       =   8.7507519213570934E-08
(PID.TID 0000.0001) %MON trcstat_ptracer0y_max        =   6.8607712454452317E-03
(PID.TID 0000.0001) %MON trcstat_ptracer0y_min        =   2.1024588722103256E-08
(PID.TID 0000.0001) %MON trcstat_ptracer0y_mean       =   9.2053685123722550E-06
(PID.TID 0000.0001) %MON trcstat_ptracer0y_sd         =   7.7459180818962239E-05
(PID.TID 0000.0001) %MON trcstat_ptracer0y_del2       =   8.7506705312094298E-08
(PID.TID 0000.0001) %MON trcstat_ptracer0z_max        =   6.8659440543641804E-03
(PID.TID 0000.0001) %MON trcstat_ptracer0z_min        =   2.1024588722103448E-08
(PID.TID 0000.0001) %MON trcstat_ptracer0z_mean       =   9.2056065811565389E-06
(PID.TID 0000.0001) %MON trcstat_ptracer0z_sd         =   7.7466784894533611E-05
(PID.TID 0000.0001) %MON trcstat_ptracer0z_del2       =   8.7537435803894090E-08
(PID.TID 0000.0001) %MON trcstat_ptracer0A_max        =   6.8641097400265220E-03
(PID.TID 0000.0001) %MON trcstat_ptracer0A_min        =   2.1024588722103398E-08
(PID.TID 0000.0001) %MON trcstat_ptracer0A_mean       =   9.2055381344656664E-06
(PID.TID 0000.0001) %MON trcstat_ptracer0A_sd         =   7.7464508303644498E-05
(PID.TID 0000.0001) %MON trcstat_ptracer0A_del2       =   8.7527761017903730E-08
(PID.TID 0000.0001) %MON trcstat_ptracer0B_max        =   6.8625913135751254E-03
(PID.TID 0000.0001) %MON trcstat_ptracer0B_min        =   2.1024588722103359E-08
(PID.TID 0000.0001) %MON trcstat_ptracer0B_mean       =   9.2054814750023463E-06
(PID.TID 0000.0001) %MON trcstat_ptracer0B_sd         =   7.7462623878825484E-05
(PID.TID 0000.0001) %MON trcstat_ptracer0B_del2       =   8.7519753300917702E-08
(PID.TID 0000.0001) %MON trcstat_ptracer0C_max        =   6.8613343758513303E-03
(PID.TID 0000.0001) %MON trcstat_ptracer0C_min        =   2.1024588722103322E-08
(PID.TID 0000.0001) %MON trcstat_ptracer0C_mean       =   9.2054345728841538E-06
(PID.TID 0000.0001) %MON trcstat_ptracer0C_sd         =   7.7461064049278030E-05
(PID.TID 0000.0001) %MON trcstat_ptracer0C_del2       =   8.7513125261014210E-08
(PID.TID 0000.0001) %MON trcstat_ptracer0D_max        =   6.8600189912573365E-03
(PID.TID 0000.0001) %MON trcstat_ptracer0D_min        =   2.1024588722103283E-08
(PID.TID 0000.0001) %MON trcstat_ptracer0D_mean       =   9.2053814715611223E-06
(PID.TID 0000.0001) %MON trcstat_ptracer0D_sd         =   7.7459329688836227E-05
(PID.TID 0000.0001) %MON trcstat_ptracer0D_del2       =   8.7505909241785333E-08
(PID.TID 0000.0001) %MON trcstat_ptracer0E_max        =   6.8568204032749521E-03
(PID.TID 0000.0001) %MON trcstat_ptracer0E_min        =   2.1024588722103187E-08
(PID.TID 0000.0001) %MON trcstat_ptracer0E_mean       =   9.2052523798551796E-06
(PID.TID 0000.0001) %MON trcstat_ptracer0E_sd         =   7.7455099879843989E-05
(PID.TID 0000.0001) %MON trcstat_ptracer0E_del2       =   8.7488262868034527E-08
(PID.TID 0000.0001) %MON trcstat_ptracer0F_max        =   6.8565572759461905E-03
(PID.TID 0000.0001) %MON trcstat_ptracer0F_min        =   2.1024588722103180E-08
(PID.TID 0000.0001) %MON trcstat_ptracer0F_mean       =   9.2052449302889997E-06
(PID.TID 0000.0001) %MON trcstat_ptracer0F_sd         =   7.7454835924508860E-05
(PID.TID 0000.0001) %MON trcstat_ptracer0F_del2       =   8.7487059198813678E-08
(PID.TID 0000.0001) %MON trcstat_ptracer0G_max        =   6.8563394618628166E-03
(PID.TID 0000.0001) %MON trcstat_ptracer0G_min        =   2.1024588722103177E-08
(PID.TID 0000.0001) %MON trcstat_ptracer0G_mean       =   9.2052387636151065E-06
(PID.TID 0000.0001) %MON trcstat_ptracer0G_sd         =   7.7454617426790922E-05
(PID.TID 0000.0001) %MON trcstat_ptracer0G_del2       =   8.7486062831740436E-08
(PID.TID 0000.0001) %MON trcstat_ptracer0H_max        =   6.8561591576156702E-03
(PID.TID 0000.0001) %MON trcstat_ptracer0H_min        =   2.1024588722103173E-08
(PID.TID 0000.0001) %MON trcstat_ptracer0H_mean       =   9.2052336589061926E-06
(PID.TID 0000.0001) %MON trcstat_ptracer0H_sd         =   7.7454436557858068E-05
(PID.TID 0000.0001) %MON trcstat_ptracer0H_del2       =   8.7485238061618810E-08
(PID.TID 0000.0001) %MON trcstat_ptracer0I_max        =   0.0000000000000000E+00
(PID.TID 0000.0001) %MON trcstat_ptracer0I_min        =   0.0000000000000000E+00
(PID.TID 0000.0001) %MON trcstat_ptracer0I_mean       =   0.0000000000000000E+00
(PID.TID 0000.0001) %MON trcstat_ptracer0I_sd         =   0.0000000000000000E+00
(PID.TID 0000.0001) %MON trcstat_ptracer0I_del2       =   0.0000000000000000E+00
(PID.TID 0000.0001) %MON trcstat_ptracer0J_max        =   0.0000000000000000E+00
(PID.TID 0000.0001) %MON trcstat_ptracer0J_min        =   0.0000000000000000E+00
(PID.TID 0000.0001) %MON trcstat_ptracer0J_mean       =   0.0000000000000000E+00
(PID.TID 0000.0001) %MON trcstat_ptracer0J_sd         =   0.0000000000000000E+00
(PID.TID 0000.0001) %MON trcstat_ptracer0J_del2       =   0.0000000000000000E+00
(PID.TID 0000.0001) %MON trcstat_ptracer0K_max        =   0.0000000000000000E+00
(PID.TID 0000.0001) %MON trcstat_ptracer0K_min        =   0.0000000000000000E+00
(PID.TID 0000.0001) %MON trcstat_ptracer0K_mean       =   0.0000000000000000E+00
(PID.TID 0000.0001) %MON trcstat_ptracer0K_sd         =   0.0000000000000000E+00
(PID.TID 0000.0001) %MON trcstat_ptracer0K_del2       =   0.0000000000000000E+00
(PID.TID 0000.0001) %MON trcstat_ptracer0L_max        =   0.0000000000000000E+00
(PID.TID 0000.0001) %MON trcstat_ptracer0L_min        =   0.0000000000000000E+00
(PID.TID 0000.0001) %MON trcstat_ptracer0L_mean       =   0.0000000000000000E+00
(PID.TID 0000.0001) %MON trcstat_ptracer0L_sd         =   0.0000000000000000E+00
(PID.TID 0000.0001) %MON trcstat_ptracer0L_del2       =   0.0000000000000000E+00
(PID.TID 0000.0001) %MON trcstat_ptracer0M_max        =   0.0000000000000000E+00
(PID.TID 0000.0001) %MON trcstat_ptracer0M_min        =   0.0000000000000000E+00
(PID.TID 0000.0001) %MON trcstat_ptracer0M_mean       =   0.0000000000000000E+00
(PID.TID 0000.0001) %MON trcstat_ptracer0M_sd         =   0.0000000000000000E+00
(PID.TID 0000.0001) %MON trcstat_ptracer0M_del2       =   0.0000000000000000E+00
(PID.TID 0000.0001) %MON trcstat_ptracer0N_max        =   0.0000000000000000E+00
(PID.TID 0000.0001) %MON trcstat_ptracer0N_min        =   0.0000000000000000E+00
(PID.TID 0000.0001) %MON trcstat_ptracer0N_mean       =   0.0000000000000000E+00
(PID.TID 0000.0001) %MON trcstat_ptracer0N_sd         =   0.0000000000000000E+00
(PID.TID 0000.0001) %MON trcstat_ptracer0N_del2       =   0.0000000000000000E+00
(PID.TID 0000.0001) %MON trcstat_ptracer0O_max        =   1.0840637184793284E-01
(PID.TID 0000.0001) %MON trcstat_ptracer0O_min        =   4.4356762579121756E-07
(PID.TID 0000.0001) %MON trcstat_ptracer0O_mean       =   1.4590438882140848E-04
(PID.TID 0000.0001) %MON trcstat_ptracer0O_sd         =   1.2287954451236684E-03
(PID.TID 0000.0001) %MON trcstat_ptracer0O_del2       =   1.3863532256159656E-06
(PID.TID 0000.0001) %MON trcstat_ptracer0P_max        =   0.0000000000000000E+00
(PID.TID 0000.0001) %MON trcstat_ptracer0P_min        =   0.0000000000000000E+00
(PID.TID 0000.0001) %MON trcstat_ptracer0P_mean       =   0.0000000000000000E+00
(PID.TID 0000.0001) %MON trcstat_ptracer0P_sd         =   0.0000000000000000E+00
(PID.TID 0000.0001) %MON trcstat_ptracer0P_del2       =   0.0000000000000000E+00
(PID.TID 0000.0001) %MON trcstat_ptracer0Q_max        =   0.0000000000000000E+00
(PID.TID 0000.0001) %MON trcstat_ptracer0Q_min        =   0.0000000000000000E+00
(PID.TID 0000.0001) %MON trcstat_ptracer0Q_mean       =   0.0000000000000000E+00
(PID.TID 0000.0001) %MON trcstat_ptracer0Q_sd         =   0.0000000000000000E+00
(PID.TID 0000.0001) %MON trcstat_ptracer0Q_del2       =   0.0000000000000000E+00
(PID.TID 0000.0001) %MON trcstat_ptracer0R_max        =   1.0860383721421984E-01
(PID.TID 0000.0001) %MON trcstat_ptracer0R_min        =   4.7809282643099709E-07
(PID.TID 0000.0001) %MON trcstat_ptracer0R_mean       =   1.4590939520794165E-04
(PID.TID 0000.0001) %MON trcstat_ptracer0R_sd         =   1.2288975185691666E-03
(PID.TID 0000.0001) %MON trcstat_ptracer0R_del2       =   1.3868654922066055E-06
(PID.TID 0000.0001) %MON trcstat_ptracer0S_max        =   0.0000000000000000E+00
(PID.TID 0000.0001) %MON trcstat_ptracer0S_min        =   0.0000000000000000E+00
(PID.TID 0000.0001) %MON trcstat_ptracer0S_mean       =   0.0000000000000000E+00
(PID.TID 0000.0001) %MON trcstat_ptracer0S_sd         =   0.0000000000000000E+00
(PID.TID 0000.0001) %MON trcstat_ptracer0S_del2       =   0.0000000000000000E+00
(PID.TID 0000.0001) %MON trcstat_ptracer0T_max        =   0.0000000000000000E+00
(PID.TID 0000.0001) %MON trcstat_ptracer0T_min        =   0.0000000000000000E+00
(PID.TID 0000.0001) %MON trcstat_ptracer0T_mean       =   0.0000000000000000E+00
(PID.TID 0000.0001) %MON trcstat_ptracer0T_sd         =   0.0000000000000000E+00
(PID.TID 0000.0001) %MON trcstat_ptracer0T_del2       =   0.0000000000000000E+00
(PID.TID 0000.0001) %MON trcstat_ptracer0U_max        =   1.0880335837191932E-01
(PID.TID 0000.0001) %MON trcstat_ptracer0U_min        =   5.2634159251066954E-07
(PID.TID 0000.0001) %MON trcstat_ptracer0U_mean       =   1.4591353944297332E-04
(PID.TID 0000.0001) %MON trcstat_ptracer0U_sd         =   1.2289457733501079E-03
(PID.TID 0000.0001) %MON trcstat_ptracer0U_del2       =   1.3871810183193058E-06
(PID.TID 0000.0001) %MON trcstat_ptracer0V_max        =   0.0000000000000000E+00
(PID.TID 0000.0001) %MON trcstat_ptracer0V_min        =   0.0000000000000000E+00
(PID.TID 0000.0001) %MON trcstat_ptracer0V_mean       =   0.0000000000000000E+00
(PID.TID 0000.0001) %MON trcstat_ptracer0V_sd         =   0.0000000000000000E+00
(PID.TID 0000.0001) %MON trcstat_ptracer0V_del2       =   0.0000000000000000E+00
(PID.TID 0000.0001) %MON trcstat_ptracer0W_max        =   0.0000000000000000E+00
(PID.TID 0000.0001) %MON trcstat_ptracer0W_min        =   0.0000000000000000E+00
(PID.TID 0000.0001) %MON trcstat_ptracer0W_mean       =   0.0000000000000000E+00
(PID.TID 0000.0001) %MON trcstat_ptracer0W_sd         =   0.0000000000000000E+00
(PID.TID 0000.0001) %MON trcstat_ptracer0W_del2       =   0.0000000000000000E+00
(PID.TID 0000.0001) %MON trcstat_ptracer0X_max        =   1.0901891547559195E-01
(PID.TID 0000.0001) %MON trcstat_ptracer0X_min        =   5.9376896107254201E-07
(PID.TID 0000.0001) %MON trcstat_ptracer0X_mean       =   1.4591696999790302E-04
(PID.TID 0000.0001) %MON trcstat_ptracer0X_sd         =   1.2289352578418223E-03
(PID.TID 0000.0001) %MON trcstat_ptracer0X_del2       =   1.3872912968191448E-06
(PID.TID 0000.0001) %MON trcstat_ptracer0Y_max        =   0.0000000000000000E+00
(PID.TID 0000.0001) %MON trcstat_ptracer0Y_min        =   0.0000000000000000E+00
(PID.TID 0000.0001) %MON trcstat_ptracer0Y_mean       =   0.0000000000000000E+00
(PID.TID 0000.0001) %MON trcstat_ptracer0Y_sd         =   0.0000000000000000E+00
(PID.TID 0000.0001) %MON trcstat_ptracer0Y_del2       =   0.0000000000000000E+00
(PID.TID 0000.0001) %MON trcstat_ptracer0Z_max        =   0.0000000000000000E+00
(PID.TID 0000.0001) %MON trcstat_ptracer0Z_min        =   0.0000000000000000E+00
(PID.TID 0000.0001) %MON trcstat_ptracer0Z_mean       =   0.0000000000000000E+00
(PID.TID 0000.0001) %MON trcstat_ptracer0Z_sd         =   0.0000000000000000E+00
(PID.TID 0000.0001) %MON trcstat_ptracer0Z_del2       =   0.0000000000000000E+00
(PID.TID 0000.0001) %MON trcstat_ptracer1a_max        =   1.0927060061614868E-01
(PID.TID 0000.0001) %MON trcstat_ptracer1a_min        =   6.3277174011772020E-07
(PID.TID 0000.0001) %MON trcstat_ptracer1a_mean       =   1.4592022367094809E-04
(PID.TID 0000.0001) %MON trcstat_ptracer1a_sd         =   1.2288677525595154E-03
(PID.TID 0000.0001) %MON trcstat_ptracer1a_del2       =   1.3872097792342030E-06
(PID.TID 0000.0001) %MON trcstat_ptracer1b_max        =   0.0000000000000000E+00
(PID.TID 0000.0001) %MON trcstat_ptracer1b_min        =   0.0000000000000000E+00
(PID.TID 0000.0001) %MON trcstat_ptracer1b_mean       =   0.0000000000000000E+00
(PID.TID 0000.0001) %MON trcstat_ptracer1b_sd         =   0.0000000000000000E+00
(PID.TID 0000.0001) %MON trcstat_ptracer1b_del2       =   0.0000000000000000E+00
(PID.TID 0000.0001) %MON trcstat_ptracer1c_max        =   1.0964033699731129E-01
(PID.TID 0000.0001) %MON trcstat_ptracer1c_min        =   6.3310318386513365E-07
(PID.TID 0000.0001) %MON trcstat_ptracer1c_mean       =   1.4592681565875215E-04
(PID.TID 0000.0001) %MON trcstat_ptracer1c_sd         =   1.2288340584448907E-03
(PID.TID 0000.0001) %MON trcstat_ptracer1c_del2       =   1.3873089351237038E-06
(PID.TID 0000.0001) %MON trcstat_ptracer1d_max        =   1.1001815139789636E-01
(PID.TID 0000.0001) %MON trcstat_ptracer1d_min        =   6.3356637456467065E-07
(PID.TID 0000.0001) %MON trcstat_ptracer1d_mean       =   1.4592795991211720E-04
(PID.TID 0000.0001) %MON trcstat_ptracer1d_sd         =   1.2285412288307559E-03
(PID.TID 0000.0001) %MON trcstat_ptracer1d_del2       =   1.3865034513215433E-06
(PID.TID 0000.0001) %MON trcstat_ptracer1e_max        =   1.1052311943380319E-01
(PID.TID 0000.0001) %MON trcstat_ptracer1e_min        =   6.3421368085972528E-07
(PID.TID 0000.0001) %MON trcstat_ptracer1e_mean       =   1.4592890711322712E-04
(PID.TID 0000.0001) %MON trcstat_ptracer1e_sd         =   1.2281143299839896E-03
(PID.TID 0000.0001) %MON trcstat_ptracer1e_del2       =   1.3852976383749914E-06
(PID.TID 0000.0001) %MON trcstat_ptracer1f_max        =   1.1120974914027791E-01
(PID.TID 0000.0001) %MON trcstat_ptracer1f_min        =   6.3511828762328297E-07
(PID.TID 0000.0001) %MON trcstat_ptracer1f_mean       =   1.4592969119651679E-04
(PID.TID 0000.0001) %MON trcstat_ptracer1f_sd         =   1.2275092018339733E-03
(PID.TID 0000.0001) %MON trcstat_ptracer1f_del2       =   1.3835745071573706E-06
(PID.TID 0000.0001) %MON trcstat_ptracer1g_max        =   0.0000000000000000E+00
(PID.TID 0000.0001) %MON trcstat_ptracer1g_min        =   0.0000000000000000E+00
(PID.TID 0000.0001) %MON trcstat_ptracer1g_mean       =   0.0000000000000000E+00
(PID.TID 0000.0001) %MON trcstat_ptracer1g_sd         =   0.0000000000000000E+00
(PID.TID 0000.0001) %MON trcstat_ptracer1g_del2       =   0.0000000000000000E+00
(PID.TID 0000.0001) %MON trcstat_ptracer1h_max        =   0.0000000000000000E+00
(PID.TID 0000.0001) %MON trcstat_ptracer1h_min        =   0.0000000000000000E+00
(PID.TID 0000.0001) %MON trcstat_ptracer1h_mean       =   0.0000000000000000E+00
(PID.TID 0000.0001) %MON trcstat_ptracer1h_sd         =   0.0000000000000000E+00
(PID.TID 0000.0001) %MON trcstat_ptracer1h_del2       =   0.0000000000000000E+00
(PID.TID 0000.0001) %MON trcstat_ptracer1i_max        =   0.0000000000000000E+00
(PID.TID 0000.0001) %MON trcstat_ptracer1i_min        =   0.0000000000000000E+00
(PID.TID 0000.0001) %MON trcstat_ptracer1i_mean       =   0.0000000000000000E+00
(PID.TID 0000.0001) %MON trcstat_ptracer1i_sd         =   0.0000000000000000E+00
(PID.TID 0000.0001) %MON trcstat_ptracer1i_del2       =   0.0000000000000000E+00
(PID.TID 0000.0001) %MON trcstat_ptracer1j_max        =   0.0000000000000000E+00
(PID.TID 0000.0001) %MON trcstat_ptracer1j_min        =   0.0000000000000000E+00
(PID.TID 0000.0001) %MON trcstat_ptracer1j_mean       =   0.0000000000000000E+00
(PID.TID 0000.0001) %MON trcstat_ptracer1j_sd         =   0.0000000000000000E+00
(PID.TID 0000.0001) %MON trcstat_ptracer1j_del2       =   0.0000000000000000E+00
(PID.TID 0000.0001) %MON trcstat_ptracer1k_max        =   0.0000000000000000E+00
(PID.TID 0000.0001) %MON trcstat_ptracer1k_min        =   0.0000000000000000E+00
(PID.TID 0000.0001) %MON trcstat_ptracer1k_mean       =   0.0000000000000000E+00
(PID.TID 0000.0001) %MON trcstat_ptracer1k_sd         =   0.0000000000000000E+00
(PID.TID 0000.0001) %MON trcstat_ptracer1k_del2       =   0.0000000000000000E+00
(PID.TID 0000.0001) %MON trcstat_ptracer1l_max        =   0.0000000000000000E+00
(PID.TID 0000.0001) %MON trcstat_ptracer1l_min        =   0.0000000000000000E+00
(PID.TID 0000.0001) %MON trcstat_ptracer1l_mean       =   0.0000000000000000E+00
(PID.TID 0000.0001) %MON trcstat_ptracer1l_sd         =   0.0000000000000000E+00
(PID.TID 0000.0001) %MON trcstat_ptracer1l_del2       =   0.0000000000000000E+00
(PID.TID 0000.0001) %MON trcstat_ptracer1m_max        =   0.0000000000000000E+00
(PID.TID 0000.0001) %MON trcstat_ptracer1m_min        =   0.0000000000000000E+00
(PID.TID 0000.0001) %MON trcstat_ptracer1m_mean       =   0.0000000000000000E+00
(PID.TID 0000.0001) %MON trcstat_ptracer1m_sd         =   0.0000000000000000E+00
(PID.TID 0000.0001) %MON trcstat_ptracer1m_del2       =   0.0000000000000000E+00
(PID.TID 0000.0001) %MON trcstat_ptracer1n_max        =   0.0000000000000000E+00
(PID.TID 0000.0001) %MON trcstat_ptracer1n_min        =   0.0000000000000000E+00
(PID.TID 0000.0001) %MON trcstat_ptracer1n_mean       =   0.0000000000000000E+00
(PID.TID 0000.0001) %MON trcstat_ptracer1n_sd         =   0.0000000000000000E+00
(PID.TID 0000.0001) %MON trcstat_ptracer1n_del2       =   0.0000000000000000E+00
(PID.TID 0000.0001) %MON trcstat_ptracer1o_max        =   0.0000000000000000E+00
(PID.TID 0000.0001) %MON trcstat_ptracer1o_min        =   0.0000000000000000E+00
(PID.TID 0000.0001) %MON trcstat_ptracer1o_mean       =   0.0000000000000000E+00
(PID.TID 0000.0001) %MON trcstat_ptracer1o_sd         =   0.0000000000000000E+00
(PID.TID 0000.0001) %MON trcstat_ptracer1o_del2       =   0.0000000000000000E+00
(PID.TID 0000.0001) %MON trcstat_ptracer1p_max        =   0.0000000000000000E+00
(PID.TID 0000.0001) %MON trcstat_ptracer1p_min        =   0.0000000000000000E+00
(PID.TID 0000.0001) %MON trcstat_ptracer1p_mean       =   0.0000000000000000E+00
(PID.TID 0000.0001) %MON trcstat_ptracer1p_sd         =   0.0000000000000000E+00
(PID.TID 0000.0001) %MON trcstat_ptracer1p_del2       =   0.0000000000000000E+00
(PID.TID 0000.0001) %MON trcstat_ptracer1q_max        =   0.0000000000000000E+00
(PID.TID 0000.0001) %MON trcstat_ptracer1q_min        =   0.0000000000000000E+00
(PID.TID 0000.0001) %MON trcstat_ptracer1q_mean       =   0.0000000000000000E+00
(PID.TID 0000.0001) %MON trcstat_ptracer1q_sd         =   0.0000000000000000E+00
(PID.TID 0000.0001) %MON trcstat_ptracer1q_del2       =   0.0000000000000000E+00
(PID.TID 0000.0001) %MON trcstat_ptracer1r_max        =   0.0000000000000000E+00
(PID.TID 0000.0001) %MON trcstat_ptracer1r_min        =   0.0000000000000000E+00
(PID.TID 0000.0001) %MON trcstat_ptracer1r_mean       =   0.0000000000000000E+00
(PID.TID 0000.0001) %MON trcstat_ptracer1r_sd         =   0.0000000000000000E+00
(PID.TID 0000.0001) %MON trcstat_ptracer1r_del2       =   0.0000000000000000E+00
(PID.TID 0000.0001) %MON trcstat_ptracer1s_max        =   0.0000000000000000E+00
(PID.TID 0000.0001) %MON trcstat_ptracer1s_min        =   0.0000000000000000E+00
(PID.TID 0000.0001) %MON trcstat_ptracer1s_mean       =   0.0000000000000000E+00
(PID.TID 0000.0001) %MON trcstat_ptracer1s_sd         =   0.0000000000000000E+00
(PID.TID 0000.0001) %MON trcstat_ptracer1s_del2       =   0.0000000000000000E+00
(PID.TID 0000.0001) %MON trcstat_ptracer1t_max        =   0.0000000000000000E+00
(PID.TID 0000.0001) %MON trcstat_ptracer1t_min        =   0.0000000000000000E+00
(PID.TID 0000.0001) %MON trcstat_ptracer1t_mean       =   0.0000000000000000E+00
(PID.TID 0000.0001) %MON trcstat_ptracer1t_sd         =   0.0000000000000000E+00
(PID.TID 0000.0001) %MON trcstat_ptracer1t_del2       =   0.0000000000000000E+00
(PID.TID 0000.0001) %MON trcstat_ptracer1u_max        =   9.0110618615412791E-06
(PID.TID 0000.0001) %MON trcstat_ptracer1u_min        =   3.0733699431465831E-11
(PID.TID 0000.0001) %MON trcstat_ptracer1u_mean       =   1.1298857864329279E-08
(PID.TID 0000.0001) %MON trcstat_ptracer1u_sd         =   9.7992332537959328E-08
(PID.TID 0000.0001) %MON trcstat_ptracer1u_del2       =   1.1373750240967280E-10
(PID.TID 0000.0001) %MON trcstat_ptracer1v_max        =   8.3775954231324989E-06
(PID.TID 0000.0001) %MON trcstat_ptracer1v_min        =   2.9029171567552473E-11
(PID.TID 0000.0001) %MON trcstat_ptracer1v_mean       =   1.0630167020162811E-08
(PID.TID 0000.0001) %MON trcstat_ptracer1v_sd         =   9.1624624644940654E-08
(PID.TID 0000.0001) %MON trcstat_ptracer1v_del2       =   1.0550891621242183E-10
(PID.TID 0000.0001) %MON trcstat_ptracer1w_max        =   7.9201698002417539E-06
(PID.TID 0000.0001) %MON trcstat_ptracer1w_min        =   2.8064533139779433E-11
(PID.TID 0000.0001) %MON trcstat_ptracer1w_mean       =   1.0157720860187972E-08
(PID.TID 0000.0001) %MON trcstat_ptracer1w_sd         =   8.7096938745489528E-08
(PID.TID 0000.0001) %MON trcstat_ptracer1w_del2       =   9.9738136530309878E-11
(PID.TID 0000.0001) %MON trcstat_ptracer1x_max        =   7.5908748711324002E-06
(PID.TID 0000.0001) %MON trcstat_ptracer1x_min        =   2.7746502858848529E-11
(PID.TID 0000.0001) %MON trcstat_ptracer1x_mean       =   9.8256274128489407E-09
(PID.TID 0000.0001) %MON trcstat_ptracer1x_sd         =   8.3889893943355404E-08
(PID.TID 0000.0001) %MON trcstat_ptracer1x_del2       =   9.5691262658345824E-11
(PID.TID 0000.0001) %MON trcstat_ptracer1y_max        =   2.7471055338520635E-06
(PID.TID 0000.0001) %MON trcstat_ptracer1y_min        =   1.0593422087841515E-11
(PID.TID 0000.0001) %MON trcstat_ptracer1y_mean       =   3.6786636249271962E-09
(PID.TID 0000.0001) %MON trcstat_ptracer1y_sd         =   3.1037339967666686E-08
(PID.TID 0000.0001) %MON trcstat_ptracer1y_del2       =   3.5072203905646507E-11
(PID.TID 0000.0001) %MON trcstat_ptracer1z_max        =   7.3528295127323587E-06
(PID.TID 0000.0001) %MON trcstat_ptracer1z_min        =   2.8050305653196213E-11
(PID.TID 0000.0001) %MON trcstat_ptracer1z_mean       =   9.5937331526346280E-09
(PID.TID 0000.0001) %MON trcstat_ptracer1z_sd         =   8.1626821114467033E-08
(PID.TID 0000.0001) %MON trcstat_ptracer1z_del2       =   9.2842282669063551E-11
(PID.TID 0000.0001) %MON trcstat_ptracer1A_max        =   7.1767458585562308E-06
(PID.TID 0000.0001) %MON trcstat_ptracer1A_min        =   2.9017964460058532E-11
(PID.TID 0000.0001) %MON trcstat_ptracer1A_mean       =   9.4328110040795970E-09
(PID.TID 0000.0001) %MON trcstat_ptracer1A_sd         =   8.0026411157998088E-08
(PID.TID 0000.0001) %MON trcstat_ptracer1A_del2       =   9.0790361376786571E-11
(PID.TID 0000.0001) %MON trcstat_ptracer1B_max        =   2.7362935596999308E-06
(PID.TID 0000.0001) %MON trcstat_ptracer1B_min        =   1.1173515434889968E-11
(PID.TID 0000.0001) %MON trcstat_ptracer1B_mean       =   3.6680423430393157E-09
(PID.TID 0000.0001) %MON trcstat_ptracer1B_sd         =   3.0929171207042570E-08
(PID.TID 0000.0001) %MON trcstat_ptracer1B_del2       =   3.4926511766195906E-11
(PID.TID 0000.0001) %MON trcstat_ptracer1C_max        =   7.1767458585562308E-06
(PID.TID 0000.0001) %MON trcstat_ptracer1C_min        =   2.9017964460058535E-11
(PID.TID 0000.0001) %MON trcstat_ptracer1C_mean       =   9.4328110040795970E-09
(PID.TID 0000.0001) %MON trcstat_ptracer1C_sd         =   8.0026411157998088E-08
(PID.TID 0000.0001) %MON trcstat_ptracer1C_del2       =   9.0790361376786571E-11
(PID.TID 0000.0001) %MON trcstat_ptracer1D_max        =   7.0617496225391275E-06
(PID.TID 0000.0001) %MON trcstat_ptracer1D_min        =   3.0763784854908055E-11
(PID.TID 0000.0001) %MON trcstat_ptracer1D_mean       =   9.3234524524676614E-09
(PID.TID 0000.0001) %MON trcstat_ptracer1D_sd         =   7.8934675559986648E-08
(PID.TID 0000.0001) %MON trcstat_ptracer1D_del2       =   8.9427805439296276E-11
(PID.TID 0000.0001) %MON trcstat_ptracer1E_max        =   2.7329384287420337E-06
(PID.TID 0000.0001) %MON trcstat_ptracer1E_min        =   1.2009817241433695E-11
(PID.TID 0000.0001) %MON trcstat_ptracer1E_mean       =   3.6610261059083010E-09
(PID.TID 0000.0001) %MON trcstat_ptracer1E_sd         =   3.0860646107690711E-08
(PID.TID 0000.0001) %MON trcstat_ptracer1E_del2       =   3.4849655721112964E-11
(PID.TID 0000.0001) %MON trcstat_ptracer1F_max        =   7.0617496225391275E-06
(PID.TID 0000.0001) %MON trcstat_ptracer1F_min        =   3.0763784854908055E-11
(PID.TID 0000.0001) %MON trcstat_ptracer1F_mean       =   9.3234524524676614E-09
(PID.TID 0000.0001) %MON trcstat_ptracer1F_sd         =   7.8934675559986648E-08
(PID.TID 0000.0001) %MON trcstat_ptracer1F_del2       =   8.9427805439296276E-11
(PID.TID 0000.0001) %MON trcstat_ptracer1G_max        =   6.9840193745928796E-06
(PID.TID 0000.0001) %MON trcstat_ptracer1G_min        =   3.3487760153034215E-11
(PID.TID 0000.0001) %MON trcstat_ptracer1G_mean       =   9.2498869587056471E-09
(PID.TID 0000.0001) %MON trcstat_ptracer1G_sd         =   7.8187436582989647E-08
(PID.TID 0000.0001) %MON trcstat_ptracer1G_del2       =   8.8489793191770916E-11
(PID.TID 0000.0001) %MON trcstat_ptracer1H_max        =   2.7320529484555229E-06
(PID.TID 0000.0001) %MON trcstat_ptracer1H_min        =   1.3197050271816451E-11
(PID.TID 0000.0001) %MON trcstat_ptracer1H_mean       =   3.6563225344895781E-09
(PID.TID 0000.0001) %MON trcstat_ptracer1H_sd         =   3.0813212902706928E-08
(PID.TID 0000.0001) %MON trcstat_ptracer1H_del2       =   3.4795714009740129E-11
(PID.TID 0000.0001) %MON trcstat_ptracer1I_max        =   6.9840193745928796E-06
(PID.TID 0000.0001) %MON trcstat_ptracer1I_min        =   3.3487760153034215E-11
(PID.TID 0000.0001) %MON trcstat_ptracer1I_mean       =   9.2498869587056471E-09
(PID.TID 0000.0001) %MON trcstat_ptracer1I_sd         =   7.8187436582989647E-08
(PID.TID 0000.0001) %MON trcstat_ptracer1I_del2       =   8.8489793191770916E-11
(PID.TID 0000.0001) %MON trcstat_ptracer1J_max        =   6.9344716164087864E-06
(PID.TID 0000.0001) %MON trcstat_ptracer1J_min        =   3.7498520995010129E-11
(PID.TID 0000.0001) %MON trcstat_ptracer1J_mean       =   9.2012960404666674E-09
(PID.TID 0000.0001) %MON trcstat_ptracer1J_sd         =   7.7682788090409670E-08
(PID.TID 0000.0001) %MON trcstat_ptracer1J_del2       =   8.7849040487860993E-11
(PID.TID 0000.0001) %MON trcstat_ptracer1K_max        =   2.7333382431157535E-06
(PID.TID 0000.0001) %MON trcstat_ptracer1K_min        =   1.4869486598868026E-11
(PID.TID 0000.0001) %MON trcstat_ptracer1K_mean       =   3.6532302770097469E-09
(PID.TID 0000.0001) %MON trcstat_ptracer1K_sd         =   3.0780234578543557E-08
(PID.TID 0000.0001) %MON trcstat_ptracer1K_del2       =   3.4756543053767120E-11
(PID.TID 0000.0001) %MON trcstat_ptracer1L_max        =   6.9344716164087864E-06
(PID.TID 0000.0001) %MON trcstat_ptracer1L_min        =   3.7498520995010129E-11
(PID.TID 0000.0001) %MON trcstat_ptracer1L_mean       =   9.2012960404666674E-09
(PID.TID 0000.0001) %MON trcstat_ptracer1L_sd         =   7.7682788090409670E-08
(PID.TID 0000.0001) %MON trcstat_ptracer1L_del2       =   8.7849040487861006E-11
(PID.TID 0000.0001) %MON trcstat_ptracer1M_max        =   6.9069748877134442E-06
(PID.TID 0000.0001) %MON trcstat_ptracer1M_min        =   3.9548719584294696E-11
(PID.TID 0000.0001) %MON trcstat_ptracer1M_mean       =   9.1698996274576878E-09
(PID.TID 0000.0001) %MON trcstat_ptracer1M_sd         =   7.7346821326230978E-08
(PID.TID 0000.0001) %MON trcstat_ptracer1M_del2       =   8.7414512732699854E-11
(PID.TID 0000.0001) %MON trcstat_ptracer1N_max        =   6.9069748877134442E-06
(PID.TID 0000.0001) %MON trcstat_ptracer1N_min        =   3.9548719584294696E-11
(PID.TID 0000.0001) %MON trcstat_ptracer1N_mean       =   9.1698996274576878E-09
(PID.TID 0000.0001) %MON trcstat_ptracer1N_sd         =   7.7346821326230978E-08
(PID.TID 0000.0001) %MON trcstat_ptracer1N_del2       =   8.7414512732699854E-11
(PID.TID 0000.0001) %MON trcstat_ptracer1O_max        =   6.9011065092093727E-06
(PID.TID 0000.0001) %MON trcstat_ptracer1O_min        =   3.9569205756533816E-11
(PID.TID 0000.0001) %MON trcstat_ptracer1O_mean       =   9.1503171596303132E-09
(PID.TID 0000.0001) %MON trcstat_ptracer1O_sd         =   7.7131360996643834E-08
(PID.TID 0000.0001) %MON trcstat_ptracer1O_del2       =   8.7142491027850724E-11
(PID.TID 0000.0001) %MON trcstat_ptracer1P_max        =   6.9058077678364348E-06
(PID.TID 0000.0001) %MON trcstat_ptracer1P_min        =   3.9598034107116781E-11
(PID.TID 0000.0001) %MON trcstat_ptracer1P_mean       =   9.1380400483756431E-09
(PID.TID 0000.0001) %MON trcstat_ptracer1P_sd         =   7.6979225233767368E-08
(PID.TID 0000.0001) %MON trcstat_ptracer1P_del2       =   8.6916393497761996E-11
(PID.TID 0000.0001) %MON trcstat_ptracer1Q_max        =   6.9253774936194312E-06
(PID.TID 0000.0001) %MON trcstat_ptracer1Q_min        =   3.9638426765246409E-11
(PID.TID 0000.0001) %MON trcstat_ptracer1Q_mean       =   9.1306555978611544E-09
(PID.TID 0000.0001) %MON trcstat_ptracer1Q_sd         =   7.6870729407772524E-08
(PID.TID 0000.0001) %MON trcstat_ptracer1Q_del2       =   8.6732898696146066E-11
(PID.TID 0000.0001) %MON trcstat_ptracer1R_max        =   6.9609093714059684E-06
(PID.TID 0000.0001) %MON trcstat_ptracer1R_min        =   3.9694930872805727E-11
(PID.TID 0000.0001) %MON trcstat_ptracer1R_mean       =   9.1263204074745906E-09
(PID.TID 0000.0001) %MON trcstat_ptracer1R_sd         =   7.6784126062155637E-08
(PID.TID 0000.0001) %MON trcstat_ptracer1R_del2       =   8.6560362532030548E-11
(PID.TID 0000.0001) %MON trcstat_ptracer1S_max        =   6.8996120310388400E-06
(PID.TID 0000.0001) %MON trcstat_ptracer1S_min        =   2.1024588722103867E-11
(PID.TID 0000.0001) %MON trcstat_ptracer1S_mean       =   9.2064638810109495E-09
(PID.TID 0000.0001) %MON trcstat_ptracer1S_sd         =   7.7498057459455623E-08
(PID.TID 0000.0001) %MON trcstat_ptracer1S_del2       =   8.7684325616532346E-11
(PID.TID 0000.0001) %MON trcstat_ptracer1T_max        =   6.8919797431651817E-06
(PID.TID 0000.0001) %MON trcstat_ptracer1T_min        =   2.1024588722103741E-11
(PID.TID 0000.0001) %MON trcstat_ptracer1T_mean       =   9.2062477984250906E-09
(PID.TID 0000.0001) %MON trcstat_ptracer1T_sd         =   7.7490391016350518E-08
(PID.TID 0000.0001) %MON trcstat_ptracer1T_del2       =   8.7649310404069811E-11
(PID.TID 0000.0001) %MON trcstat_ptracer1U_max        =   6.8856618141417219E-06
(PID.TID 0000.0001) %MON trcstat_ptracer1U_min        =   2.1024588722103637E-11
(PID.TID 0000.0001) %MON trcstat_ptracer1U_mean       =   9.2060689274937087E-09
(PID.TID 0000.0001) %MON trcstat_ptracer1U_sd         =   7.7484046309861039E-08
(PID.TID 0000.0001) %MON trcstat_ptracer1U_del2       =   8.7620340122130302E-11
(PID.TID 0000.0001) %MON trcstat_ptracer1V_max        =   6.8804318977907876E-06
(PID.TID 0000.0001) %MON trcstat_ptracer1V_min        =   2.1024588722103550E-11
(PID.TID 0000.0001) %MON trcstat_ptracer1V_mean       =   9.2059208599852994E-09
(PID.TID 0000.0001) %MON trcstat_ptracer1V_sd         =   7.7478795252686921E-08
(PID.TID 0000.0001) %MON trcstat_ptracer1V_del2       =   8.7596369076059158E-11
(PID.TID 0000.0001) %MON trcstat_ptracer1W_max        =   6.8858492914437025E-06
(PID.TID 0000.0001) %MON trcstat_ptracer1W_min        =   2.1024588722103667E-11
(PID.TID 0000.0001) %MON trcstat_ptracer1W_mean       =   9.2060980932861816E-09
(PID.TID 0000.0001) %MON trcstat_ptracer1W_sd         =   7.7484889592384684E-08
(PID.TID 0000.0001) %MON trcstat_ptracer1W_del2       =   8.7623245743607837E-11
(PID.TID 0000.0001) %MON trcstat_ptracer1X_max        =   6.9086376536804160E-06
(PID.TID 0000.0001) %MON trcstat_ptracer1X_min        =   2.1024588722104578E-11
(PID.TID 0000.0001) %MON trcstat_ptracer1X_mean       =   9.2071996753907416E-09
(PID.TID 0000.0001) %MON trcstat_ptracer1X_sd         =   7.7519814850662148E-08
(PID.TID 0000.0001) %MON trcstat_ptracer1X_del2       =   8.7762977636249823E-11
(PID.TID 0000.0001) %MON trcstat_ptracer1Y_max        =   6.8994510603096537E-06
(PID.TID 0000.0001) %MON trcstat_ptracer1Y_min        =   2.1024588722104329E-11
(PID.TID 0000.0001) %MON trcstat_ptracer1Y_mean       =   9.2068568814083945E-09
(PID.TID 0000.0001) %MON trcstat_ptracer1Y_sd         =   7.7508397272964129E-08
(PID.TID 0000.0001) %MON trcstat_ptracer1Y_del2       =   8.7714388266870489E-11
(PID.TID 0000.0001) %MON trcstat_ptracer1Z_max        =   6.8918464932591656E-06
(PID.TID 0000.0001) %MON trcstat_ptracer1Z_min        =   2.1024588722104125E-11
(PID.TID 0000.0001) %MON trcstat_ptracer1Z_mean       =   9.2065731200924989E-09
(PID.TID 0000.0001) %MON trcstat_ptracer1Z_sd         =   7.7498948764332046E-08
(PID.TID 0000.0001) %MON trcstat_ptracer1Z_del2       =   8.7674190683423053E-11
(PID.TID 0000.0001) %MON trcstat_ptracer2a_max        =   6.8855515112466354E-06
(PID.TID 0000.0001) %MON trcstat_ptracer2a_min        =   2.1024588722103954E-11
(PID.TID 0000.0001) %MON trcstat_ptracer2a_mean       =   9.2063382254078469E-09
(PID.TID 0000.0001) %MON trcstat_ptracer2a_sd         =   7.7491129336195497E-08
(PID.TID 0000.0001) %MON trcstat_ptracer2a_del2       =   8.7640932141207539E-11
(PID.TID 0000.0001) %MON trcstat_ptracer2b_max        =   6.8760048969290900E-06
(PID.TID 0000.0001) %MON trcstat_ptracer2b_min        =   2.1024588722103673E-11
(PID.TID 0000.0001) %MON trcstat_ptracer2b_mean       =   9.2059643886059594E-09
(PID.TID 0000.0001) %MON trcstat_ptracer2b_sd         =   7.7478826729839539E-08
(PID.TID 0000.0001) %MON trcstat_ptracer2b_del2       =   8.7589293470049497E-11
(PID.TID 0000.0001) %MON trcstat_ptracer2c_max        =   6.8619881546878116E-06
(PID.TID 0000.0001) %MON trcstat_ptracer2c_min        =   2.1024588722103246E-11
(PID.TID 0000.0001) %MON trcstat_ptracer2c_mean       =   9.2053986873722691E-09
(PID.TID 0000.0001) %MON trcstat_ptracer2c_sd         =   7.7460284370049165E-08
(PID.TID 0000.0001) %MON trcstat_ptracer2c_del2       =   8.7511907400101962E-11
(PID.TID 0000.0001) %MON trcstat_ptracer2d_max        =   6.8608350871579525E-06
(PID.TID 0000.0001) %MON trcstat_ptracer2d_min        =   2.1024588722103227E-11
(PID.TID 0000.0001) %MON trcstat_ptracer2d_mean       =   9.2053660421395727E-09
(PID.TID 0000.0001) %MON trcstat_ptracer2d_sd         =   7.7459127488966540E-08
(PID.TID 0000.0001) %MON trcstat_ptracer2d_del2       =   8.7506630865232804E-11
(PID.TID 0000.0001) %MON trcstat_ptracer2e_max        =   6.8598805897734859E-06
(PID.TID 0000.0001) %MON trcstat_ptracer2e_min        =   2.1024588722103211E-11
(PID.TID 0000.0001) %MON trcstat_ptracer2e_mean       =   9.2053390187533484E-09
(PID.TID 0000.0001) %MON trcstat_ptracer2e_sd         =   7.7458169868946797E-08
(PID.TID 0000.0001) %MON trcstat_ptracer2e_del2       =   8.7502263347095741E-11
(PID.TID 0000.0001) %MON trcstat_ptracer2f_max        =   6.8590904667031873E-06
(PID.TID 0000.0001) %MON trcstat_ptracer2f_min        =   2.1024588722103198E-11
(PID.TID 0000.0001) %MON trcstat_ptracer2f_mean       =   9.2053166490735093E-09
(PID.TID 0000.0001) %MON trcstat_ptracer2f_sd         =   7.7457377184416736E-08
(PID.TID 0000.0001) %MON trcstat_ptracer2f_del2       =   8.7498648195719272E-11
(PID.TID 0000.0001) %MON trcstat_ptracer2g_max        =   2.2086768199673751E-01
(PID.TID 0000.0001) %MON trcstat_ptracer2g_min        =   2.6600294334819503E-07
(PID.TID 0000.0001) %MON trcstat_ptracer2g_mean       =   2.0009372790681025E-04
(PID.TID 0000.0001) %MON trcstat_ptracer2g_sd         =   1.9681360218192045E-03
(PID.TID 0000.0001) %MON trcstat_ptracer2g_del2       =   2.3458164688936804E-06
(PID.TID 0000.0001) %MON trcstat_ptracer2h_max        =   2.2117391365312195E-01
(PID.TID 0000.0001) %MON trcstat_ptracer2h_min        =   2.8491973748862973E-07
(PID.TID 0000.0001) %MON trcstat_ptracer2h_mean       =   2.0410658755734237E-04
(PID.TID 0000.0001) %MON trcstat_ptracer2h_sd         =   1.9932357084020257E-03
(PID.TID 0000.0001) %MON trcstat_ptracer2h_del2       =   2.3200016673011715E-06
(PID.TID 0000.0001) %MON trcstat_ptracer2i_max        =   2.2142154564245503E-01
(PID.TID 0000.0001) %MON trcstat_ptracer2i_min        =   3.0486393571429513E-07
(PID.TID 0000.0001) %MON trcstat_ptracer2i_mean       =   2.0809912267186613E-04
(PID.TID 0000.0001) %MON trcstat_ptracer2i_sd         =   2.0182696368640845E-03
(PID.TID 0000.0001) %MON trcstat_ptracer2i_del2       =   2.3245008916119604E-06
(PID.TID 0000.0001) %MON trcstat_ptracer2j_max        =   2.2161130191545353E-01
(PID.TID 0000.0001) %MON trcstat_ptracer2j_min        =   3.2583875723553308E-07
(PID.TID 0000.0001) %MON trcstat_ptracer2j_mean       =   2.1206525884737639E-04
(PID.TID 0000.0001) %MON trcstat_ptracer2j_sd         =   2.0430951758300619E-03
(PID.TID 0000.0001) %MON trcstat_ptracer2j_del2       =   2.3403166868422011E-06
(PID.TID 0000.0001) %MON trcstat_ptracer2k_max        =   2.2148070407309824E-02
(PID.TID 0000.0001) %MON trcstat_ptracer2k_min        =   3.0732919557360569E-08
(PID.TID 0000.0001) %MON trcstat_ptracer2k_mean       =   2.0861687027385858E-05
(PID.TID 0000.0001) %MON trcstat_ptracer2k_sd         =   2.0216334025000473E-04
(PID.TID 0000.0001) %MON trcstat_ptracer2k_del2       =   2.3199350316408948E-07
(PID.TID 0000.0001) %MON trcstat_ptracer2l_max        =   2.2262463364031890E-01
(PID.TID 0000.0001) %MON trcstat_ptracer2l_min        =   7.1354362914793770E-07
(PID.TID 0000.0001) %MON trcstat_ptracer2l_mean       =   2.6148513207762926E-04
(PID.TID 0000.0001) %MON trcstat_ptracer2l_sd         =   2.3461033782913323E-03
(PID.TID 0000.0001) %MON trcstat_ptracer2l_del2       =   2.6204738997951128E-06
(PID.TID 0000.0001) %MON trcstat_ptracer2m_max        =   2.3035003551411584E-01
(PID.TID 0000.0001) %MON trcstat_ptracer2m_min        =   9.9855745934570740E-07
(PID.TID 0000.0001) %MON trcstat_ptracer2m_mean       =   2.9324073670880367E-04
(PID.TID 0000.0001) %MON trcstat_ptracer2m_sd         =   2.5548861358274670E-03
(PID.TID 0000.0001) %MON trcstat_ptracer2m_del2       =   2.8272243730436214E-06
(PID.TID 0000.0001) %MON trcstat_ptracer2n_max        =   2.2102993678378913E-02
(PID.TID 0000.0001) %MON trcstat_ptracer2n_min        =   2.6531434046948949E-08
(PID.TID 0000.0001) %MON trcstat_ptracer2n_mean       =   2.0002333749740006E-05
(PID.TID 0000.0001) %MON trcstat_ptracer2n_sd         =   1.9675846027793453E-04
(PID.TID 0000.0001) %MON trcstat_ptracer2n_del2       =   2.2739826372236895E-07
(PID.TID 0000.0001) %MON trcstat_ptracer2o_max        =   2.2236234878050501E-01
(PID.TID 0000.0001) %MON trcstat_ptracer2o_min        =   6.4253923787056693E-07
(PID.TID 0000.0001) %MON trcstat_ptracer2o_mean       =   2.5451209653145143E-04
(PID.TID 0000.0001) %MON trcstat_ptracer2o_sd         =   2.3033466676586909E-03
(PID.TID 0000.0001) %MON trcstat_ptracer2o_del2       =   2.5762913291512763E-06
(PID.TID 0000.0001) %MON trcstat_ptracer2p_max        =   2.2258834143055242E-01
(PID.TID 0000.0001) %MON trcstat_ptracer2p_min        =   9.4188184485922062E-07
(PID.TID 0000.0001) %MON trcstat_ptracer2p_mean       =   2.8106997777728996E-04
(PID.TID 0000.0001) %MON trcstat_ptracer2p_sd         =   2.4653660369905166E-03
(PID.TID 0000.0001) %MON trcstat_ptracer2p_del2       =   2.7471065112838635E-06
(PID.TID 0000.0001) %MON trcstat_ptracer2q_max        =   2.2084662726763127E-02
(PID.TID 0000.0001) %MON trcstat_ptracer2q_min        =   2.2801618771946063E-08
(PID.TID 0000.0001) %MON trcstat_ptracer2q_mean       =   1.9134706514222729E-05
(PID.TID 0000.0001) %MON trcstat_ptracer2q_sd         =   1.9129826647928486E-04
(PID.TID 0000.0001) %MON trcstat_ptracer2q_del2       =   2.2293415965161591E-07
(PID.TID 0000.0001) %MON trcstat_ptracer2r_max        =   2.2221921402856801E-01
(PID.TID 0000.0001) %MON trcstat_ptracer2r_min        =   5.7415781880653072E-07
(PID.TID 0000.0001) %MON trcstat_ptracer2r_mean       =   2.4722745920437584E-04
(PID.TID 0000.0001) %MON trcstat_ptracer2r_sd         =   2.2591217708078822E-03
(PID.TID 0000.0001) %MON trcstat_ptracer2r_del2       =   2.5334730479206580E-06
(PID.TID 0000.0001) %MON trcstat_ptracer2s_max        =   2.2262293106804146E-01
(PID.TID 0000.0001) %MON trcstat_ptracer2s_min        =   8.6882812659531806E-07
(PID.TID 0000.0001) %MON trcstat_ptracer2s_mean       =   2.7532919848312397E-04
(PID.TID 0000.0001) %MON trcstat_ptracer2s_sd         =   2.4303108957756800E-03
(PID.TID 0000.0001) %MON trcstat_ptracer2s_del2       =   2.7088731867764856E-06
(PID.TID 0000.0001) %MON trcstat_ptracer2t_max        =   2.2075896572003248E-02
(PID.TID 0000.0001) %MON trcstat_ptracer2t_min        =   1.9515993208595315E-08
(PID.TID 0000.0001) %MON trcstat_ptracer2t_mean       =   1.8260901430569127E-05
(PID.TID 0000.0001) %MON trcstat_ptracer2t_sd         =   1.8575011979382443E-04
(PID.TID 0000.0001) %MON trcstat_ptracer2t_del2       =   2.1844340366574810E-07
(PID.TID 0000.0001) %MON trcstat_ptracer2u_max        =   2.2218253849089403E-01
(PID.TID 0000.0001) %MON trcstat_ptracer2u_min        =   5.0923508777150688E-07
(PID.TID 0000.0001) %MON trcstat_ptracer2u_mean       =   2.3963790737515140E-04
(PID.TID 0000.0001) %MON trcstat_ptracer2u_sd         =   2.2128630307847764E-03
(PID.TID 0000.0001) %MON trcstat_ptracer2u_del2       =   2.4897690304820358E-06
(PID.TID 0000.0001) %MON trcstat_ptracer2v_max        =   2.2263449845921807E-01
(PID.TID 0000.0001) %MON trcstat_ptracer2v_min        =   7.9482138603235006E-07
(PID.TID 0000.0001) %MON trcstat_ptracer2v_mean       =   2.6918497370121374E-04
(PID.TID 0000.0001) %MON trcstat_ptracer2v_sd         =   2.3928034682525021E-03
(PID.TID 0000.0001) %MON trcstat_ptracer2v_del2       =   2.6687178905591581E-06
(PID.TID 0000.0001) %MON trcstat_ptracer2w_max        =   2.2063031617164122E-02
(PID.TID 0000.0001) %MON trcstat_ptracer2w_min        =   1.6640875112225440E-08
(PID.TID 0000.0001) %MON trcstat_ptracer2w_mean       =   1.7384877160525304E-05
(PID.TID 0000.0001) %MON trcstat_ptracer2w_sd         =   1.8013844028792801E-04
(PID.TID 0000.0001) %MON trcstat_ptracer2w_del2       =   2.1393620442356996E-07
(PID.TID 0000.0001) %MON trcstat_ptracer2x_max        =   2.2210920005337298E-01
(PID.TID 0000.0001) %MON trcstat_ptracer2x_min        =   4.4841641251511721E-07
(PID.TID 0000.0001) %MON trcstat_ptracer2x_mean       =   2.3177419930463618E-04
(PID.TID 0000.0001) %MON trcstat_ptracer2x_sd         =   2.1646803617277272E-03
(PID.TID 0000.0001) %MON trcstat_ptracer2x_del2       =   2.4452645694906805E-06
(PID.TID 0000.0001) %MON trcstat_ptracer2y_max        =   2.2262663578414960E-01
(PID.TID 0000.0001) %MON trcstat_ptracer2y_min        =   7.2095931748453702E-07
(PID.TID 0000.0001) %MON trcstat_ptracer2y_mean       =   2.6265516940390582E-04
(PID.TID 0000.0001) %MON trcstat_ptracer2y_sd         =   2.3529276056413195E-03
(PID.TID 0000.0001) %MON trcstat_ptracer2y_del2       =   2.6269133413218918E-06
(PID.TID 0000.0001) %MON trcstat_ptracer2z_max        =   2.2200019848448890E-01
(PID.TID 0000.0001) %MON trcstat_ptracer2z_min        =   3.9214173221453560E-07
(PID.TID 0000.0001) %MON trcstat_ptracer2z_mean       =   2.2367098358330807E-04
(PID.TID 0000.0001) %MON trcstat_ptracer2z_sd         =   2.1147220330079283E-03
(PID.TID 0000.0001) %MON trcstat_ptracer2z_del2       =   2.4001177432449846E-06
(PID.TID 0000.0001) %MON trcstat_ptracer2A_max        =   2.2264724239789982E-01
(PID.TID 0000.0001) %MON trcstat_ptracer2A_min        =   6.4831042416845920E-07
(PID.TID 0000.0001) %MON trcstat_ptracer2A_mean       =   2.5576739309724188E-04
(PID.TID 0000.0001) %MON trcstat_ptracer2A_sd         =   2.3109387718556695E-03
(PID.TID 0000.0001) %MON trcstat_ptracer2A_del2       =   2.5842261586626161E-06
(PID.TID 0000.0001) %MON trcstat_ptracer2B_max        =   2.2258165562564725E-01
(PID.TID 0000.0001) %MON trcstat_ptracer2B_min        =   5.7784653703406008E-07
(PID.TID 0000.0001) %MON trcstat_ptracer2B_mean       =   2.4853152062679289E-04
(PID.TID 0000.0001) %MON trcstat_ptracer2B_sd         =   2.2664326594417066E-03
(PID.TID 0000.0001) %MON trcstat_ptracer2B_del2       =   2.5392562355829689E-06
(PID.TID 0000.0001) %MON trcstat_ptracer2C_max        =   2.2249344486480860E-01
(PID.TID 0000.0001) %MON trcstat_ptracer2C_min        =   5.1038649401370229E-07
(PID.TID 0000.0001) %MON trcstat_ptracer2C_mean       =   2.4098570123964199E-04
(PID.TID 0000.0001) %MON trcstat_ptracer2C_sd         =   2.2197654868724840E-03
(PID.TID 0000.0001) %MON trcstat_ptracer2C_del2       =   2.4929600821936240E-06
(PID.TID 0000.0001) %MON trcstat_ptracer2D_max        =   2.2238018893512204E-01
(PID.TID 0000.0001) %MON trcstat_ptracer2D_min        =   4.4655683998729982E-07
(PID.TID 0000.0001) %MON trcstat_ptracer2D_mean       =   2.3316132547056821E-04
(PID.TID 0000.0001) %MON trcstat_ptracer2D_sd         =   2.1710067588429204E-03
(PID.TID 0000.0001) %MON trcstat_ptracer2D_del2       =   2.4453052358848150E-06
(PID.TID 0000.0001) // =======================================================
(PID.TID 0000.0001) // End MONITOR ptracers field statistics
(PID.TID 0000.0001) // =======================================================
 Compute Stats, Diag. #   3209  PP        vol(   0 ): 1.326E+18  Parms: SM P    MR      
 Compute Stats, Diag. #   3210  Nfix      vol(   0 ): 1.326E+18  Parms: SM P    MR      
 Compute Stats, Diag. #   3211  Denit     vol(   0 ): 1.326E+18  Parms: SM P    MR      
(PID.TID 0000.0001) // =======================================================
(PID.TID 0000.0001) // Begin MONITOR EXF statistics
(PID.TID 0000.0001) // =======================================================
(PID.TID 0000.0001) %MON exf_tsnumber                 =                     1
(PID.TID 0000.0001) %MON exf_time_sec                 =   1.0800000000000000E+04
(PID.TID 0000.0001) %MON exf_ustress_max              =   0.0000000000000000E+00
(PID.TID 0000.0001) %MON exf_ustress_min              =   0.0000000000000000E+00
(PID.TID 0000.0001) %MON exf_ustress_mean             =   0.0000000000000000E+00
(PID.TID 0000.0001) %MON exf_ustress_sd               =   0.0000000000000000E+00
(PID.TID 0000.0001) %MON exf_ustress_del2             =   0.0000000000000000E+00
(PID.TID 0000.0001) %MON exf_vstress_max              =   0.0000000000000000E+00
(PID.TID 0000.0001) %MON exf_vstress_min              =   0.0000000000000000E+00
(PID.TID 0000.0001) %MON exf_vstress_mean             =   0.0000000000000000E+00
(PID.TID 0000.0001) %MON exf_vstress_sd               =   0.0000000000000000E+00
(PID.TID 0000.0001) %MON exf_vstress_del2             =   0.0000000000000000E+00
(PID.TID 0000.0001) %MON exf_hflux_max                =   0.0000000000000000E+00
(PID.TID 0000.0001) %MON exf_hflux_min                =   0.0000000000000000E+00
(PID.TID 0000.0001) %MON exf_hflux_mean               =   0.0000000000000000E+00
(PID.TID 0000.0001) %MON exf_hflux_sd                 =   0.0000000000000000E+00
(PID.TID 0000.0001) %MON exf_hflux_del2               =   0.0000000000000000E+00
(PID.TID 0000.0001) %MON exf_sflux_max                =   0.0000000000000000E+00
(PID.TID 0000.0001) %MON exf_sflux_min                =   0.0000000000000000E+00
(PID.TID 0000.0001) %MON exf_sflux_mean               =   0.0000000000000000E+00
(PID.TID 0000.0001) %MON exf_sflux_sd                 =   0.0000000000000000E+00
(PID.TID 0000.0001) %MON exf_sflux_del2               =   0.0000000000000000E+00
(PID.TID 0000.0001) %MON exf_uwind_max                =   0.0000000000000000E+00
(PID.TID 0000.0001) %MON exf_uwind_min                =   0.0000000000000000E+00
(PID.TID 0000.0001) %MON exf_uwind_mean               =   0.0000000000000000E+00
(PID.TID 0000.0001) %MON exf_uwind_sd                 =   0.0000000000000000E+00
(PID.TID 0000.0001) %MON exf_uwind_del2               =   0.0000000000000000E+00
(PID.TID 0000.0001) %MON exf_vwind_max                =   0.0000000000000000E+00
(PID.TID 0000.0001) %MON exf_vwind_min                =   0.0000000000000000E+00
(PID.TID 0000.0001) %MON exf_vwind_mean               =   0.0000000000000000E+00
(PID.TID 0000.0001) %MON exf_vwind_sd                 =   0.0000000000000000E+00
(PID.TID 0000.0001) %MON exf_vwind_del2               =   0.0000000000000000E+00
(PID.TID 0000.0001) %MON exf_wspeed_max               =   0.0000000000000000E+00
(PID.TID 0000.0001) %MON exf_wspeed_min               =   0.0000000000000000E+00
(PID.TID 0000.0001) %MON exf_wspeed_mean              =   0.0000000000000000E+00
(PID.TID 0000.0001) %MON exf_wspeed_sd                =   0.0000000000000000E+00
(PID.TID 0000.0001) %MON exf_wspeed_del2              =   0.0000000000000000E+00
(PID.TID 0000.0001) %MON exf_evap_max                 =   0.0000000000000000E+00
(PID.TID 0000.0001) %MON exf_evap_min                 =   0.0000000000000000E+00
(PID.TID 0000.0001) %MON exf_evap_mean                =   0.0000000000000000E+00
(PID.TID 0000.0001) %MON exf_evap_sd                  =   0.0000000000000000E+00
(PID.TID 0000.0001) %MON exf_evap_del2                =   0.0000000000000000E+00
(PID.TID 0000.0001) // =======================================================
(PID.TID 0000.0001) // End MONITOR EXF statistics
(PID.TID 0000.0001) // =======================================================
(PID.TID 0000.0001) // =======================================================
(PID.TID 0000.0001) // Begin MONITOR dynamic field statistics
(PID.TID 0000.0001) // =======================================================
(PID.TID 0000.0001) %MON time_tsnumber                =                     2
(PID.TID 0000.0001) %MON time_secondsf                =   2.1600000000000000E+04
(PID.TID 0000.0001) %MON dynstat_eta_max              =   0.0000000000000000E+00
(PID.TID 0000.0001) %MON dynstat_eta_min              =   0.0000000000000000E+00
(PID.TID 0000.0001) %MON dynstat_eta_mean             =   0.0000000000000000E+00
(PID.TID 0000.0001) %MON dynstat_eta_sd               =   0.0000000000000000E+00
(PID.TID 0000.0001) %MON dynstat_eta_del2             =   0.0000000000000000E+00
(PID.TID 0000.0001) %MON dynstat_uvel_max             =   7.8500951081514359E-01
(PID.TID 0000.0001) %MON dynstat_uvel_min             =  -8.1677708774805069E-01
(PID.TID 0000.0001) %MON dynstat_uvel_mean            =   2.3319899558026445E-03
(PID.TID 0000.0001) %MON dynstat_uvel_sd              =   2.2851955347877588E-02
(PID.TID 0000.0001) %MON dynstat_uvel_del2            =   2.5488694676996276E-05
(PID.TID 0000.0001) %MON dynstat_vvel_max             =   1.2975457906723022E+00
(PID.TID 0000.0001) %MON dynstat_vvel_min             =  -8.7210071552544832E-01
(PID.TID 0000.0001) %MON dynstat_vvel_mean            =  -1.7067523626689617E-05
(PID.TID 0000.0001) %MON dynstat_vvel_sd              =   1.1668763447103835E-02
(PID.TID 0000.0001) %MON dynstat_vvel_del2            =   2.3682690608332685E-05
(PID.TID 0000.0001) %MON dynstat_wvel_max             =   5.2057552784390282E-04
(PID.TID 0000.0001) %MON dynstat_wvel_min             =  -6.2682385032530874E-04
(PID.TID 0000.0001) %MON dynstat_wvel_mean            =   2.1811717532296686E-14
(PID.TID 0000.0001) %MON dynstat_wvel_sd              =   1.0274595867304234E-05
(PID.TID 0000.0001) %MON dynstat_wvel_del2            =   1.8906708750008405E-08
(PID.TID 0000.0001) %MON dynstat_theta_max            =   3.1811811208724976E+01
(PID.TID 0000.0001) %MON dynstat_theta_min            =  -2.6705707013607025E+00
(PID.TID 0000.0001) %MON dynstat_theta_mean           =   3.6068704244703964E+00
(PID.TID 0000.0001) %MON dynstat_theta_sd             =   4.4528579640392456E+00
(PID.TID 0000.0001) %MON dynstat_theta_del2           =   3.6279631749897674E-04
(PID.TID 0000.0001) %MON dynstat_salt_max             =   3.9533718109130859E+01
(PID.TID 0000.0001) %MON dynstat_salt_min             =   2.6509908676147461E+01
(PID.TID 0000.0001) %MON dynstat_salt_mean            =   3.4722156720417516E+01
(PID.TID 0000.0001) %MON dynstat_salt_sd              =   3.6501661205502578E-01
(PID.TID 0000.0001) %MON dynstat_salt_del2            =   6.9285532272240130E-05
(PID.TID 0000.0001) %MON dynstat_sst_max              =   3.1811811208724976E+01
(PID.TID 0000.0001) %MON dynstat_sst_min              =  -1.9905042946338654E+00
(PID.TID 0000.0001) %MON dynstat_sst_mean             =   1.9168948025841981E+01
(PID.TID 0000.0001) %MON dynstat_sst_sd               =   9.5447125080671000E+00
(PID.TID 0000.0001) %MON dynstat_sst_del2             =   2.1724405943826285E-03
(PID.TID 0000.0001) %MON dynstat_sss_max              =   3.9533718109130859E+01
(PID.TID 0000.0001) %MON dynstat_sss_min              =   2.6509908676147461E+01
(PID.TID 0000.0001) %MON dynstat_sss_mean             =   3.4861274121727504E+01
(PID.TID 0000.0001) %MON dynstat_sss_sd               =   1.0801334850452375E+00
(PID.TID 0000.0001) %MON dynstat_sss_del2             =   5.9642749467311688E-04
(PID.TID 0000.0001) %MON forcing_qnet_max             =   0.0000000000000000E+00
(PID.TID 0000.0001) %MON forcing_qnet_min             =   0.0000000000000000E+00
(PID.TID 0000.0001) %MON forcing_qnet_mean            =   0.0000000000000000E+00
(PID.TID 0000.0001) %MON forcing_qnet_sd              =   0.0000000000000000E+00
(PID.TID 0000.0001) %MON forcing_qnet_del2            =   0.0000000000000000E+00
(PID.TID 0000.0001) %MON forcing_qsw_max              =   0.0000000000000000E+00
(PID.TID 0000.0001) %MON forcing_qsw_min              =   0.0000000000000000E+00
(PID.TID 0000.0001) %MON forcing_qsw_mean             =   0.0000000000000000E+00
(PID.TID 0000.0001) %MON forcing_qsw_sd               =   0.0000000000000000E+00
(PID.TID 0000.0001) %MON forcing_qsw_del2             =   0.0000000000000000E+00
(PID.TID 0000.0001) %MON forcing_empmr_max            =   0.0000000000000000E+00
(PID.TID 0000.0001) %MON forcing_empmr_min            =   0.0000000000000000E+00
(PID.TID 0000.0001) %MON forcing_empmr_mean           =   0.0000000000000000E+00
(PID.TID 0000.0001) %MON forcing_empmr_sd             =   0.0000000000000000E+00
(PID.TID 0000.0001) %MON forcing_empmr_del2           =   0.0000000000000000E+00
(PID.TID 0000.0001) %MON forcing_fu_max               =   0.0000000000000000E+00
(PID.TID 0000.0001) %MON forcing_fu_min               =   0.0000000000000000E+00
(PID.TID 0000.0001) %MON forcing_fu_mean              =   0.0000000000000000E+00
(PID.TID 0000.0001) %MON forcing_fu_sd                =   0.0000000000000000E+00
(PID.TID 0000.0001) %MON forcing_fu_del2              =   0.0000000000000000E+00
(PID.TID 0000.0001) %MON forcing_fv_max               =   0.0000000000000000E+00
(PID.TID 0000.0001) %MON forcing_fv_min               =   0.0000000000000000E+00
(PID.TID 0000.0001) %MON forcing_fv_mean              =   0.0000000000000000E+00
(PID.TID 0000.0001) %MON forcing_fv_sd                =   0.0000000000000000E+00
(PID.TID 0000.0001) %MON forcing_fv_del2              =   0.0000000000000000E+00
(PID.TID 0000.0001) %MON advcfl_uvel_max              =   1.2905130879046875E-01
(PID.TID 0000.0001) %MON advcfl_vvel_max              =   1.2604616849753117E-01
(PID.TID 0000.0001) %MON advcfl_wvel_max              =   2.4987625336507335E-01
(PID.TID 0000.0001) %MON advcfl_W_hf_max              =   2.8111078503570752E-01
(PID.TID 0000.0001) %MON pe_b_mean                    =   0.0000000000000000E+00
(PID.TID 0000.0001) %MON ke_max                       =   6.8335447069307875E-01
(PID.TID 0000.0001) %MON ke_mean                      =   3.1834613624379300E-04
(PID.TID 0000.0001) %MON ke_vol                       =   1.3258927395735470E+18
(PID.TID 0000.0001) %MON vort_r_min                   =  -1.3250010937636551E-05
(PID.TID 0000.0001) %MON vort_r_max                   =   1.5933204468911676E-05
(PID.TID 0000.0001) %MON vort_a_mean                  =  -2.1443554611097619E-05
(PID.TID 0000.0001) %MON vort_a_sd                    =   7.3250397729609018E-05
(PID.TID 0000.0001) %MON vort_p_mean                  =  -2.3136237666213905E-05
(PID.TID 0000.0001) %MON vort_p_sd                    =   8.5528169644785089E-05
(PID.TID 0000.0001) %MON surfExpan_theta_mean         =  -5.5139914822221084E-08
(PID.TID 0000.0001) %MON surfExpan_salt_mean          =   6.9811319503682803E-09
(PID.TID 0000.0001) // =======================================================
(PID.TID 0000.0001) // End MONITOR dynamic field statistics
(PID.TID 0000.0001) // =======================================================
(PID.TID 0000.0001) // =======================================================
(PID.TID 0000.0001) // Begin MONITOR ptracer field statistics
(PID.TID 0000.0001) // =======================================================
(PID.TID 0000.0001) %MON trcstat_ptracer01_max        =   2.4045024362451322E+03
(PID.TID 0000.0001) %MON trcstat_ptracer01_min        =   1.8497121645136010E+03
(PID.TID 0000.0001) %MON trcstat_ptracer01_mean       =   2.2546514844488556E+03
(PID.TID 0000.0001) %MON trcstat_ptracer01_sd         =   7.8578390289157184E+01
(PID.TID 0000.0001) %MON trcstat_ptracer01_del2       =   6.1990651097505647E-03
(PID.TID 0000.0001) %MON trcstat_ptracer02_max        =   2.1596019266943229E+00
(PID.TID 0000.0001) %MON trcstat_ptracer02_min        =  -1.5513537779126285E-03
(PID.TID 0000.0001) %MON trcstat_ptracer02_mean       =   1.8594773551351572E-03
(PID.TID 0000.0001) %MON trcstat_ptracer02_sd         =   1.7791419610769479E-02
(PID.TID 0000.0001) %MON trcstat_ptracer02_del2       =   2.8682705531877608E-05
(PID.TID 0000.0001) %MON trcstat_ptracer03_max        =   3.0384581009027576E+00
(PID.TID 0000.0001) %MON trcstat_ptracer03_min        =  -1.1939862116406015E-03
(PID.TID 0000.0001) %MON trcstat_ptracer03_mean       =   5.6991917924534502E-03
(PID.TID 0000.0001) %MON trcstat_ptracer03_sd         =   2.3636020049215903E-02
(PID.TID 0000.0001) %MON trcstat_ptracer03_del2       =   2.8187066510630573E-05
(PID.TID 0000.0001) %MON trcstat_ptracer04_max        =   5.0682251067754912E+01
(PID.TID 0000.0001) %MON trcstat_ptracer04_min        =   2.1339687807531474E-03
(PID.TID 0000.0001) %MON trcstat_ptracer04_mean       =   3.1007579240775357E+01
(PID.TID 0000.0001) %MON trcstat_ptracer04_sd         =   9.0054876996853093E+00
(PID.TID 0000.0001) %MON trcstat_ptracer04_del2       =   6.2507485764017089E-04
(PID.TID 0000.0001) %MON trcstat_ptracer05_max        =   3.7943685056988654E+00
(PID.TID 0000.0001) %MON trcstat_ptracer05_min        =   1.9101732008006564E-02
(PID.TID 0000.0001) %MON trcstat_ptracer05_mean       =   2.1762190128459951E+00
(PID.TID 0000.0001) %MON trcstat_ptracer05_sd         =   6.4449974030982349E-01
(PID.TID 0000.0001) %MON trcstat_ptracer05_del2       =   4.1946884630212062E-05
(PID.TID 0000.0001) %MON trcstat_ptracer06_max        =   2.6060231893938686E+02
(PID.TID 0000.0001) %MON trcstat_ptracer06_min        =   2.8666721405586271E-01
(PID.TID 0000.0001) %MON trcstat_ptracer06_mean       =   9.0810359796108486E+01
(PID.TID 0000.0001) %MON trcstat_ptracer06_sd         =   5.2139564649362541E+01
(PID.TID 0000.0001) %MON trcstat_ptracer06_del2       =   1.3197588339347796E-03
(PID.TID 0000.0001) %MON trcstat_ptracer07_max        =   1.0973842600564647E-03
(PID.TID 0000.0001) %MON trcstat_ptracer07_min        =   1.2267886124722820E-07
(PID.TID 0000.0001) %MON trcstat_ptracer07_mean       =   6.2098279385573512E-04
(PID.TID 0000.0001) %MON trcstat_ptracer07_sd         =   1.7820679687316317E-04
(PID.TID 0000.0001) %MON trcstat_ptracer07_del2       =   6.0458328125249567E-08
(PID.TID 0000.0001) %MON trcstat_ptracer08_max        =   5.2013403995187808E+01
(PID.TID 0000.0001) %MON trcstat_ptracer08_min        =  -5.5331209470871749E-05
(PID.TID 0000.0001) %MON trcstat_ptracer08_mean       =   2.2573312399757053E-01
(PID.TID 0000.0001) %MON trcstat_ptracer08_sd         =   1.3218508297834133E+00
(PID.TID 0000.0001) %MON trcstat_ptracer08_del2       =   1.2357134205621290E-03
(PID.TID 0000.0001) %MON trcstat_ptracer09_max        =   7.2691354071988110E+00
(PID.TID 0000.0001) %MON trcstat_ptracer09_min        =  -2.8563197025494982E-07
(PID.TID 0000.0001) %MON trcstat_ptracer09_mean       =   3.0314632622795136E-02
(PID.TID 0000.0001) %MON trcstat_ptracer09_sd         =   1.7795530523514932E-01
(PID.TID 0000.0001) %MON trcstat_ptracer09_del2       =   1.6692924768533729E-04
(PID.TID 0000.0001) %MON trcstat_ptracer10_max        =   4.3345388780029620E-01
(PID.TID 0000.0001) %MON trcstat_ptracer10_min        =  -1.8606420649359118E-08
(PID.TID 0000.0001) %MON trcstat_ptracer10_mean       =   1.8812086156795602E-03
(PID.TID 0000.0001) %MON trcstat_ptracer10_sd         =   1.1015880137181038E-02
(PID.TID 0000.0001) %MON trcstat_ptracer10_del2       =   1.0297704866361755E-05
(PID.TID 0000.0001) %MON trcstat_ptracer11_max        =   5.0402560804353291E-04
(PID.TID 0000.0001) %MON trcstat_ptracer11_min        =  -4.5894771341958030E-10
(PID.TID 0000.0001) %MON trcstat_ptracer11_mean       =   1.9079915972745574E-06
(PID.TID 0000.0001) %MON trcstat_ptracer11_sd         =   1.1234578861438954E-05
(PID.TID 0000.0001) %MON trcstat_ptracer11_del2       =   1.0608726331473218E-08
(PID.TID 0000.0001) %MON trcstat_ptracer12_max        =   1.3340280099528409E+03
(PID.TID 0000.0001) %MON trcstat_ptracer12_min        =   1.0004830549995255E-04
(PID.TID 0000.0001) %MON trcstat_ptracer12_mean       =   1.6643405713857376E-01
(PID.TID 0000.0001) %MON trcstat_ptracer12_sd         =   2.3077680399566813E+00
(PID.TID 0000.0001) %MON trcstat_ptracer12_del2       =   8.9765651557503886E-04
(PID.TID 0000.0001) %MON trcstat_ptracer13_max        =   1.8839032229247485E+02
(PID.TID 0000.0001) %MON trcstat_ptracer13_min        =   1.3349012955964779E-05
(PID.TID 0000.0001) %MON trcstat_ptracer13_mean       =   2.2531364839988684E-02
(PID.TID 0000.0001) %MON trcstat_ptracer13_sd         =   3.2847637945230201E-01
(PID.TID 0000.0001) %MON trcstat_ptracer13_del2       =   1.2334284717697720E-04
(PID.TID 0000.0001) %MON trcstat_ptracer14_max        =   1.1118701822102455E+01
(PID.TID 0000.0001) %MON trcstat_ptracer14_min        =   8.3401147707325977E-07
(PID.TID 0000.0001) %MON trcstat_ptracer14_mean       =   1.3869650565424918E-03
(PID.TID 0000.0001) %MON trcstat_ptracer14_sd         =   1.9233076385293996E-02
(PID.TID 0000.0001) %MON trcstat_ptracer14_del2       =   7.4804715528742709E-06
(PID.TID 0000.0001) %MON trcstat_ptracer15_max        =   1.2251630482676057E+02
(PID.TID 0000.0001) %MON trcstat_ptracer15_min        =   3.1080266151438741E-07
(PID.TID 0000.0001) %MON trcstat_ptracer15_mean       =   1.3525514541441985E-01
(PID.TID 0000.0001) %MON trcstat_ptracer15_sd         =   3.9848672245637201E-01
(PID.TID 0000.0001) %MON trcstat_ptracer15_del2       =   2.6672778617237961E-04
(PID.TID 0000.0001) %MON trcstat_ptracer16_max        =   1.2430031187461658E-02
(PID.TID 0000.0001) %MON trcstat_ptracer16_min        =   8.3477772493440963E-10
(PID.TID 0000.0001) %MON trcstat_ptracer16_mean       =   1.4294478122737681E-06
(PID.TID 0000.0001) %MON trcstat_ptracer16_sd         =   2.1838748086400060E-05
(PID.TID 0000.0001) %MON trcstat_ptracer16_del2       =   7.9634654103291923E-09
(PID.TID 0000.0001) %MON trcstat_ptracer17_max        =   3.9021171300354939E+02
(PID.TID 0000.0001) %MON trcstat_ptracer17_min        =   2.6236180172064186E-07
(PID.TID 0000.0001) %MON trcstat_ptracer17_mean       =   2.2836232622382344E-01
(PID.TID 0000.0001) %MON trcstat_ptracer17_sd         =   1.0016981719483733E+00
(PID.TID 0000.0001) %MON trcstat_ptracer17_del2       =   1.5343357527111963E-03
(PID.TID 0000.0001) %MON trcstat_ptracer18_max        =   2.4565659151151281E+03
(PID.TID 0000.0001) %MON trcstat_ptracer18_min        =   2.1803766112578023E+03
(PID.TID 0000.0001) %MON trcstat_ptracer18_mean       =   2.3632516206286336E+03
(PID.TID 0000.0001) %MON trcstat_ptracer18_sd         =   4.2539153043825351E+01
(PID.TID 0000.0001) %MON trcstat_ptracer18_del2       =   2.1507053655364047E-03
(PID.TID 0000.0001) %MON trcstat_ptracer19_max        =   4.0168718479575961E+02
(PID.TID 0000.0001) %MON trcstat_ptracer19_min        =   3.1119524684570763E+00
(PID.TID 0000.0001) %MON trcstat_ptracer19_mean       =   1.7469016893621693E+02
(PID.TID 0000.0001) %MON trcstat_ptracer19_sd         =   6.2908607569360861E+01
(PID.TID 0000.0001) %MON trcstat_ptracer19_del2       =   4.2494156543884439E-03
(PID.TID 0000.0001) %MON trcstat_ptracer20_max        =   7.8095409689209194E-01
(PID.TID 0000.0001) %MON trcstat_ptracer20_min        =   6.0645816619086078E-07
(PID.TID 0000.0001) %MON trcstat_ptracer20_mean       =   1.0816957216463531E-03
(PID.TID 0000.0001) %MON trcstat_ptracer20_sd         =   9.0386549193167253E-03
(PID.TID 0000.0001) %MON trcstat_ptracer20_del2       =   1.1072573095357222E-05
(PID.TID 0000.0001) %MON trcstat_ptracer21_max        =   7.8485414869536518E-01
(PID.TID 0000.0001) %MON trcstat_ptracer21_min        =   6.1079240334311241E-07
(PID.TID 0000.0001) %MON trcstat_ptracer21_mean       =   1.0818051163252768E-03
(PID.TID 0000.0001) %MON trcstat_ptracer21_sd         =   9.0422934664132447E-03
(PID.TID 0000.0001) %MON trcstat_ptracer21_del2       =   1.1089214412280582E-05
(PID.TID 0000.0001) %MON trcstat_ptracer22_max        =   7.8815358151854964E-01
(PID.TID 0000.0001) %MON trcstat_ptracer22_min        =   6.1687557977167931E-07
(PID.TID 0000.0001) %MON trcstat_ptracer22_mean       =   1.0818957650981834E-03
(PID.TID 0000.0001) %MON trcstat_ptracer22_sd         =   9.0452165095211996E-03
(PID.TID 0000.0001) %MON trcstat_ptracer22_del2       =   1.1102732955157557E-05
(PID.TID 0000.0001) %MON trcstat_ptracer23_max        =   7.9097668600618809E-01
(PID.TID 0000.0001) %MON trcstat_ptracer23_min        =   6.2543667035606355E-07
(PID.TID 0000.0001) %MON trcstat_ptracer23_mean       =   1.0819708810046456E-03
(PID.TID 0000.0001) %MON trcstat_ptracer23_sd         =   9.0475067504529917E-03
(PID.TID 0000.0001) %MON trcstat_ptracer23_del2       =   1.1113522900436731E-05
(PID.TID 0000.0001) %MON trcstat_ptracer24_max        =   7.9292074697982731E-02
(PID.TID 0000.0001) %MON trcstat_ptracer24_min        =   6.3752133447199707E-08
(PID.TID 0000.0001) %MON trcstat_ptracer24_mean       =   1.0820098157535339E-04
(PID.TID 0000.0001) %MON trcstat_ptracer24_sd         =   9.0484710666481562E-04
(PID.TID 0000.0001) %MON trcstat_ptracer24_del2       =   1.1118786393882056E-06
(PID.TID 0000.0001) %MON trcstat_ptracer25_max        =   7.9292074697982740E-01
(PID.TID 0000.0001) %MON trcstat_ptracer25_min        =   6.3752133447191935E-07
(PID.TID 0000.0001) %MON trcstat_ptracer25_mean       =   1.0820098157535343E-03
(PID.TID 0000.0001) %MON trcstat_ptracer25_sd         =   9.0484710666481477E-03
(PID.TID 0000.0001) %MON trcstat_ptracer25_del2       =   1.1118786393882046E-05
(PID.TID 0000.0001) %MON trcstat_ptracer26_max        =   9.5165004636130146E-01
(PID.TID 0000.0001) %MON trcstat_ptracer26_min        =   6.5517281005195757E-07
(PID.TID 0000.0001) %MON trcstat_ptracer26_mean       =   1.2259705594954715E-03
(PID.TID 0000.0001) %MON trcstat_ptracer26_sd         =   9.9575649869972811E-03
(PID.TID 0000.0001) %MON trcstat_ptracer26_del2       =   1.2024010106585640E-05
(PID.TID 0000.0001) %MON trcstat_ptracer27_max        =   7.9305385746292381E-02
(PID.TID 0000.0001) %MON trcstat_ptracer27_min        =   6.5457433125970962E-08
(PID.TID 0000.0001) %MON trcstat_ptracer27_mean       =   1.0819071384822720E-04
(PID.TID 0000.0001) %MON trcstat_ptracer27_sd         =   9.0451066029667581E-04
(PID.TID 0000.0001) %MON trcstat_ptracer27_del2       =   1.1107959114716613E-06
(PID.TID 0000.0001) %MON trcstat_ptracer28_max        =   7.9305385746292389E-01
(PID.TID 0000.0001) %MON trcstat_ptracer28_min        =   6.5457433125963720E-07
(PID.TID 0000.0001) %MON trcstat_ptracer28_mean       =   1.0819071384822719E-03
(PID.TID 0000.0001) %MON trcstat_ptracer28_sd         =   9.0451066029667536E-03
(PID.TID 0000.0001) %MON trcstat_ptracer28_del2       =   1.1107959114716630E-05
(PID.TID 0000.0001) %MON trcstat_ptracer29_max        =   9.4618976279397327E-01
(PID.TID 0000.0001) %MON trcstat_ptracer29_min        =   7.0208061272900896E-07
(PID.TID 0000.0001) %MON trcstat_ptracer29_mean       =   1.2203052351938734E-03
(PID.TID 0000.0001) %MON trcstat_ptracer29_sd         =   9.9182182824687354E-03
(PID.TID 0000.0001) %MON trcstat_ptracer29_del2       =   1.1979216370513203E-05
(PID.TID 0000.0001) %MON trcstat_ptracer30_max        =   7.9555808822836138E-02
(PID.TID 0000.0001) %MON trcstat_ptracer30_min        =   7.0146485647530745E-08
(PID.TID 0000.0001) %MON trcstat_ptracer30_mean       =   1.0819806232583080E-04
(PID.TID 0000.0001) %MON trcstat_ptracer30_sd         =   9.0466019196708649E-04
(PID.TID 0000.0001) %MON trcstat_ptracer30_del2       =   1.1115259786221742E-06
(PID.TID 0000.0001) %MON trcstat_ptracer31_max        =   7.9555808822836138E-01
(PID.TID 0000.0001) %MON trcstat_ptracer31_min        =   7.0146485647522971E-07
(PID.TID 0000.0001) %MON trcstat_ptracer31_mean       =   1.0819806232583037E-03
(PID.TID 0000.0001) %MON trcstat_ptracer31_sd         =   9.0466019196708582E-03
(PID.TID 0000.0001) %MON trcstat_ptracer31_del2       =   1.1115259786221724E-05
(PID.TID 0000.0001) %MON trcstat_ptracer32_max        =   9.3601776797987546E-01
(PID.TID 0000.0001) %MON trcstat_ptracer32_min        =   8.0453043694278702E-07
(PID.TID 0000.0001) %MON trcstat_ptracer32_mean       =   1.2100731501647746E-03
(PID.TID 0000.0001) %MON trcstat_ptracer32_sd         =   9.8467300044558122E-03
(PID.TID 0000.0001) %MON trcstat_ptracer32_del2       =   1.1907632037000105E-05
(PID.TID 0000.0001) %MON trcstat_ptracer33_max        =   7.9795660370518301E-02
(PID.TID 0000.0001) %MON trcstat_ptracer33_min        =   8.0389690487632852E-08
(PID.TID 0000.0001) %MON trcstat_ptracer33_mean       =   1.0820416464504122E-04
(PID.TID 0000.0001) %MON trcstat_ptracer33_sd         =   9.0473279680241929E-04
(PID.TID 0000.0001) %MON trcstat_ptracer33_del2       =   1.1119677191761680E-06
(PID.TID 0000.0001) %MON trcstat_ptracer34_max        =   7.9795660370518307E-01
(PID.TID 0000.0001) %MON trcstat_ptracer34_min        =   8.0389690487625689E-07
(PID.TID 0000.0001) %MON trcstat_ptracer34_mean       =   1.0820416464504114E-03
(PID.TID 0000.0001) %MON trcstat_ptracer34_sd         =   9.0473279680241912E-03
(PID.TID 0000.0001) %MON trcstat_ptracer34_del2       =   1.1119677191761696E-05
(PID.TID 0000.0001) %MON trcstat_ptracer35_max        =   9.2463886447954624E-01
(PID.TID 0000.0001) %MON trcstat_ptracer35_min        =   9.5963133889994694E-07
(PID.TID 0000.0001) %MON trcstat_ptracer35_mean       =   1.1979968028094342E-03
(PID.TID 0000.0001) %MON trcstat_ptracer35_sd         =   9.7646773054539063E-03
(PID.TID 0000.0001) %MON trcstat_ptracer35_del2       =   1.1824845806551959E-05
(PID.TID 0000.0001) %MON trcstat_ptracer36_max        =   8.0039539703378737E-02
(PID.TID 0000.0001) %MON trcstat_ptracer36_min        =   9.5897165967575389E-08
(PID.TID 0000.0001) %MON trcstat_ptracer36_mean       =   1.0820922884997111E-04
(PID.TID 0000.0001) %MON trcstat_ptracer36_sd         =   9.0472116790488752E-04
(PID.TID 0000.0001) %MON trcstat_ptracer36_del2       =   1.1121074446484406E-06
(PID.TID 0000.0001) %MON trcstat_ptracer37_max        =   8.0039539703378715E-01
(PID.TID 0000.0001) %MON trcstat_ptracer37_min        =   9.5897165967568141E-07
(PID.TID 0000.0001) %MON trcstat_ptracer37_mean       =   1.0820922884997102E-03
(PID.TID 0000.0001) %MON trcstat_ptracer37_sd         =   9.0472116790488721E-03
(PID.TID 0000.0001) %MON trcstat_ptracer37_del2       =   1.1121074446484404E-05
(PID.TID 0000.0001) %MON trcstat_ptracer38_max        =   9.1227872113708164E-01
(PID.TID 0000.0001) %MON trcstat_ptracer38_min        =   1.1996797987953056E-06
(PID.TID 0000.0001) %MON trcstat_ptracer38_mean       =   1.1865586335631795E-03
(PID.TID 0000.0001) %MON trcstat_ptracer38_sd         =   9.6875618668698909E-03
(PID.TID 0000.0001) %MON trcstat_ptracer38_del2       =   1.1745227368471964E-05
(PID.TID 0000.0001) %MON trcstat_ptracer39_max        =   8.0308819047450741E-01
(PID.TID 0000.0001) %MON trcstat_ptracer39_min        =   1.1989824627709954E-06
(PID.TID 0000.0001) %MON trcstat_ptracer39_mean       =   1.0821404059079935E-03
(PID.TID 0000.0001) %MON trcstat_ptracer39_sd         =   9.0462827276823633E-03
(PID.TID 0000.0001) %MON trcstat_ptracer39_del2       =   1.1119640820464767E-05
(PID.TID 0000.0001) %MON trcstat_ptracer40_max        =   8.9977475060329803E-01
(PID.TID 0000.0001) %MON trcstat_ptracer40_min        =   1.5806455549927366E-06
(PID.TID 0000.0001) %MON trcstat_ptracer40_mean       =   1.1758700150748041E-03
(PID.TID 0000.0001) %MON trcstat_ptracer40_sd         =   9.6167445814347094E-03
(PID.TID 0000.0001) %MON trcstat_ptracer40_del2       =   1.1674488008233796E-05
(PID.TID 0000.0001) %MON trcstat_ptracer41_max        =   8.8485253593974211E-01
(PID.TID 0000.0001) %MON trcstat_ptracer41_min        =   2.2015663322658265E-06
(PID.TID 0000.0001) %MON trcstat_ptracer41_mean       =   1.1658377671957697E-03
(PID.TID 0000.0001) %MON trcstat_ptracer41_sd         =   9.5478565857453727E-03
(PID.TID 0000.0001) %MON trcstat_ptracer41_del2       =   1.1596025708127222E-05
(PID.TID 0000.0001) %MON trcstat_ptracer42_max        =   8.6839281591816175E-01
(PID.TID 0000.0001) %MON trcstat_ptracer42_min        =   3.2315328029409571E-06
(PID.TID 0000.0001) %MON trcstat_ptracer42_mean       =   1.1565595390227129E-03
(PID.TID 0000.0001) %MON trcstat_ptracer42_sd         =   9.4825940720970146E-03
(PID.TID 0000.0001) %MON trcstat_ptracer42_del2       =   1.1517600439855766E-05
(PID.TID 0000.0001) %MON trcstat_ptracer43_max        =   8.4987074129763129E-01
(PID.TID 0000.0001) %MON trcstat_ptracer43_min        =   4.6635667213644465E-06
(PID.TID 0000.0001) %MON trcstat_ptracer43_mean       =   1.1480375408184436E-03
(PID.TID 0000.0001) %MON trcstat_ptracer43_sd         =   9.4201167281635148E-03
(PID.TID 0000.0001) %MON trcstat_ptracer43_del2       =   1.1437388465343647E-05
(PID.TID 0000.0001) %MON trcstat_ptracer44_max        =   8.1364446778738997E-01
(PID.TID 0000.0001) %MON trcstat_ptracer44_min        =   6.0288158628606843E-07
(PID.TID 0000.0001) %MON trcstat_ptracer44_mean       =   1.1024436857199897E-03
(PID.TID 0000.0001) %MON trcstat_ptracer44_sd         =   9.2002380017922047E-03
(PID.TID 0000.0001) %MON trcstat_ptracer44_del2       =   1.1321746995946655E-05
(PID.TID 0000.0001) %MON trcstat_ptracer45_max        =   8.1347837595334105E-01
(PID.TID 0000.0001) %MON trcstat_ptracer45_min        =   6.0288097514200359E-07
(PID.TID 0000.0001) %MON trcstat_ptracer45_mean       =   1.1024389040578757E-03
(PID.TID 0000.0001) %MON trcstat_ptracer45_sd         =   9.2000703710716242E-03
(PID.TID 0000.0001) %MON trcstat_ptracer45_del2       =   1.1320985434765464E-05
(PID.TID 0000.0001) %MON trcstat_ptracer46_max        =   8.1334058062761638E-01
(PID.TID 0000.0001) %MON trcstat_ptracer46_min        =   6.0288046924326391E-07
(PID.TID 0000.0001) %MON trcstat_ptracer46_mean       =   1.1024349435576816E-03
(PID.TID 0000.0001) %MON trcstat_ptracer46_sd         =   9.1999314995898571E-03
(PID.TID 0000.0001) %MON trcstat_ptracer46_del2       =   1.1320354263517713E-05
(PID.TID 0000.0001) %MON trcstat_ptracer47_max        =   8.1322630712271982E-01
(PID.TID 0000.0001) %MON trcstat_ptracer47_min        =   6.0288005046550668E-07
(PID.TID 0000.0001) %MON trcstat_ptracer47_mean       =   1.1024316635124653E-03
(PID.TID 0000.0001) %MON trcstat_ptracer47_sd         =   9.1998164685124367E-03
(PID.TID 0000.0001) %MON trcstat_ptracer47_del2       =   1.1319831094825965E-05
(PID.TID 0000.0001) %MON trcstat_ptracer48_max        =   8.1320246772731974E-01
(PID.TID 0000.0001) %MON trcstat_ptracer48_min        =   6.0288003836660400E-07
(PID.TID 0000.0001) %MON trcstat_ptracer48_mean       =   1.1024313774153126E-03
(PID.TID 0000.0001) %MON trcstat_ptracer48_sd         =   9.1998032386157568E-03
(PID.TID 0000.0001) %MON trcstat_ptracer48_del2       =   1.1319756703165601E-05
(PID.TID 0000.0001) %MON trcstat_ptracer49_max        =   8.1371941356570898E-01
(PID.TID 0000.0001) %MON trcstat_ptracer49_min        =   6.0288363649750556E-07
(PID.TID 0000.0001) %MON trcstat_ptracer49_mean       =   1.1024553847273409E-03
(PID.TID 0000.0001) %MON trcstat_ptracer49_sd         =   9.2005596671085321E-03
(PID.TID 0000.0001) %MON trcstat_ptracer49_del2       =   1.1322874815484040E-05
(PID.TID 0000.0001) %MON trcstat_ptracer50_max        =   8.1353904849283465E-01
(PID.TID 0000.0001) %MON trcstat_ptracer50_min        =   6.0288267228584028E-07
(PID.TID 0000.0001) %MON trcstat_ptracer50_mean       =   1.1024485515812850E-03
(PID.TID 0000.0001) %MON trcstat_ptracer50_sd         =   9.2003354732241756E-03
(PID.TID 0000.0001) %MON trcstat_ptracer50_del2       =   1.1321911316036474E-05
(PID.TID 0000.0001) %MON trcstat_ptracer51_max        =   8.1338965428811705E-01
(PID.TID 0000.0001) %MON trcstat_ptracer51_min        =   6.0288187412139060E-07
(PID.TID 0000.0001) %MON trcstat_ptracer51_mean       =   1.1024428797515118E-03
(PID.TID 0000.0001) %MON trcstat_ptracer51_sd         =   9.2001495506217751E-03
(PID.TID 0000.0001) %MON trcstat_ptracer51_del2       =   1.1321112146316492E-05
(PID.TID 0000.0001) %MON trcstat_ptracer52_max        =   8.1326608600586170E-01
(PID.TID 0000.0001) %MON trcstat_ptracer52_min        =   6.0288121340910518E-07
(PID.TID 0000.0001) %MON trcstat_ptracer52_mean       =   1.1024381932226031E-03
(PID.TID 0000.0001) %MON trcstat_ptracer52_sd         =   9.1999958570156901E-03
(PID.TID 0000.0001) %MON trcstat_ptracer52_del2       =   1.1320451916253842E-05
(PID.TID 0000.0001) %MON trcstat_ptracer53_max        =   8.1313695248880535E-01
(PID.TID 0000.0001) %MON trcstat_ptracer53_min        =   6.0288043982696744E-07
(PID.TID 0000.0001) %MON trcstat_ptracer53_mean       =   1.1024329182707617E-03
(PID.TID 0000.0001) %MON trcstat_ptracer53_sd         =   9.1998256833001283E-03
(PID.TID 0000.0001) %MON trcstat_ptracer53_del2       =   1.1319735682761023E-05
(PID.TID 0000.0001) %MON trcstat_ptracer54_max        =   8.1282511113962042E-01
(PID.TID 0000.0001) %MON trcstat_ptracer54_min        =   6.0287857361029229E-07
(PID.TID 0000.0001) %MON trcstat_ptracer54_mean       =   1.1024202023470334E-03
(PID.TID 0000.0001) %MON trcstat_ptracer54_sd         =   9.1994137425311841E-03
(PID.TID 0000.0001) %MON trcstat_ptracer54_del2       =   1.1318004160900436E-05
(PID.TID 0000.0001) %MON trcstat_ptracer55_max        =   8.1279897416436564E-01
(PID.TID 0000.0001) %MON trcstat_ptracer55_min        =   6.0287848128013249E-07
(PID.TID 0000.0001) %MON trcstat_ptracer55_mean       =   1.1024194462776913E-03
(PID.TID 0000.0001) %MON trcstat_ptracer55_sd         =   9.1993873871266795E-03
(PID.TID 0000.0001) %MON trcstat_ptracer55_del2       =   1.1317882524731051E-05
(PID.TID 0000.0001) %MON trcstat_ptracer56_max        =   8.1277738789450982E-01
(PID.TID 0000.0001) %MON trcstat_ptracer56_min        =   6.0287840485017585E-07
(PID.TID 0000.0001) %MON trcstat_ptracer56_mean       =   1.1024188227192360E-03
(PID.TID 0000.0001) %MON trcstat_ptracer56_sd         =   9.1993656337944572E-03
(PID.TID 0000.0001) %MON trcstat_ptracer56_del2       =   1.1317782269877629E-05
(PID.TID 0000.0001) %MON trcstat_ptracer57_max        =   8.1275956583128006E-01
(PID.TID 0000.0001) %MON trcstat_ptracer57_min        =   6.0287834158225201E-07
(PID.TID 0000.0001) %MON trcstat_ptracer57_mean       =   1.1024183083003214E-03
(PID.TID 0000.0001) %MON trcstat_ptracer57_sd         =   9.1993476750425948E-03
(PID.TID 0000.0001) %MON trcstat_ptracer57_del2       =   1.1317699599921946E-05
(PID.TID 0000.0001) %MON trcstat_ptracer58_max        =   2.2151572046065041E-01
(PID.TID 0000.0001) %MON trcstat_ptracer58_min        =   1.7717445595606097E-07
(PID.TID 0000.0001) %MON trcstat_ptracer58_mean       =   3.1667664701785764E-04
(PID.TID 0000.0001) %MON trcstat_ptracer58_sd         =   2.7078868169208995E-03
(PID.TID 0000.0001) %MON trcstat_ptracer58_del2       =   3.3035521868051916E-06
(PID.TID 0000.0001) %MON trcstat_ptracer59_max        =   1.7819701815864356E-01
(PID.TID 0000.0001) %MON trcstat_ptracer59_min        =   1.4459279303900009E-07
(PID.TID 0000.0001) %MON trcstat_ptracer59_mean       =   2.5625813622046632E-04
(PID.TID 0000.0001) %MON trcstat_ptracer59_sd         =   2.1909742816021817E-03
(PID.TID 0000.0001) %MON trcstat_ptracer59_del2       =   2.6738153355404099E-06
(PID.TID 0000.0001) %MON trcstat_ptracer60_max        =   1.4674717838628445E-01
(PID.TID 0000.0001) %MON trcstat_ptracer60_min        =   1.2134855150975263E-07
(PID.TID 0000.0001) %MON trcstat_ptracer60_mean       =   2.1213614032568551E-04
(PID.TID 0000.0001) %MON trcstat_ptracer60_sd         =   1.8075631662553019E-03
(PID.TID 0000.0001) %MON trcstat_ptracer60_del2       =   2.2081333575374037E-06
(PID.TID 0000.0001) %MON trcstat_ptracer61_max        =   1.2528377247199837E-01
(PID.TID 0000.0001) %MON trcstat_ptracer61_min        =   1.0594055758390423E-07
(PID.TID 0000.0001) %MON trcstat_ptracer61_mean       =   1.8206192797960995E-04
(PID.TID 0000.0001) %MON trcstat_ptracer61_sd         =   1.5434359437476904E-03
(PID.TID 0000.0001) %MON trcstat_ptracer61_del2       =   1.8887771941451227E-06
(PID.TID 0000.0001) %MON trcstat_ptracer62_max        =   2.6430691565994237E-02
(PID.TID 0000.0001) %MON trcstat_ptracer62_min        =   2.1250711149066599E-08
(PID.TID 0000.0001) %MON trcstat_ptracer62_mean       =   3.6066993858451154E-05
(PID.TID 0000.0001) %MON trcstat_ptracer62_sd         =   3.0161570222160501E-04
(PID.TID 0000.0001) %MON trcstat_ptracer62_del2       =   3.7062621312940218E-07
(PID.TID 0000.0001) %MON trcstat_ptracer63_max        =   1.1452467321847848E-01
(PID.TID 0000.0001) %MON trcstat_ptracer63_min        =   9.6480447510463196E-08
(PID.TID 0000.0001) %MON trcstat_ptracer63_mean       =   1.6266122188783889E-04
(PID.TID 0000.0001) %MON trcstat_ptracer63_sd         =   1.3715084525450522E-03
(PID.TID 0000.0001) %MON trcstat_ptracer63_del2       =   1.6815469807543621E-06
(PID.TID 0000.0001) %MON trcstat_ptracer64_max        =   1.0907369497919372E-01
(PID.TID 0000.0001) %MON trcstat_ptracer64_min        =   9.1569761123730906E-08
(PID.TID 0000.0001) %MON trcstat_ptracer64_mean       =   1.5206816141768572E-04
(PID.TID 0000.0001) %MON trcstat_ptracer64_sd         =   1.2732832566750142E-03
(PID.TID 0000.0001) %MON trcstat_ptracer64_del2       =   1.5598508749904672E-06
(PID.TID 0000.0001) %MON trcstat_ptracer65_max        =   2.6435128582097456E-02
(PID.TID 0000.0001) %MON trcstat_ptracer65_min        =   2.1819144375323798E-08
(PID.TID 0000.0001) %MON trcstat_ptracer65_mean       =   3.6063571282742470E-05
(PID.TID 0000.0001) %MON trcstat_ptracer65_sd         =   3.0150355343222534E-04
(PID.TID 0000.0001) %MON trcstat_ptracer65_del2       =   3.7026530382388714E-07
(PID.TID 0000.0001) %MON trcstat_ptracer66_max        =   1.0864615096524005E-01
(PID.TID 0000.0001) %MON trcstat_ptracer66_min        =   9.1555770196499960E-08
(PID.TID 0000.0001) %MON trcstat_ptracer66_mean       =   1.5077411392973035E-04
(PID.TID 0000.0001) %MON trcstat_ptracer66_sd         =   1.2648746002348859E-03
(PID.TID 0000.0001) %MON trcstat_ptracer66_del2       =   1.5520199429447654E-06
(PID.TID 0000.0001) %MON trcstat_ptracer67_max        =   1.0626799127482153E-01
(PID.TID 0000.0001) %MON trcstat_ptracer67_min        =   9.3528647530030953E-08
(PID.TID 0000.0001) %MON trcstat_ptracer67_mean       =   1.4495645279003600E-04
(PID.TID 0000.0001) %MON trcstat_ptracer67_sd         =   1.2106400193035674E-03
(PID.TID 0000.0001) %MON trcstat_ptracer67_del2       =   1.4860813085458376E-06
(PID.TID 0000.0001) %MON trcstat_ptracer68_max        =   2.6518602940945372E-02
(PID.TID 0000.0001) %MON trcstat_ptracer68_min        =   2.3382161882510263E-08
(PID.TID 0000.0001) %MON trcstat_ptracer68_mean       =   3.6066020775276962E-05
(PID.TID 0000.0001) %MON trcstat_ptracer68_sd         =   3.0155339732236211E-04
(PID.TID 0000.0001) %MON trcstat_ptracer68_del2       =   3.7050865954072472E-07
(PID.TID 0000.0001) %MON trcstat_ptracer69_max        =   1.0607441176378149E-01
(PID.TID 0000.0001) %MON trcstat_ptracer69_min        =   9.3528647530030953E-08
(PID.TID 0000.0001) %MON trcstat_ptracer69_mean       =   1.4426408310110785E-04
(PID.TID 0000.0001) %MON trcstat_ptracer69_sd         =   1.2062135892894484E-03
(PID.TID 0000.0001) %MON trcstat_ptracer69_del2       =   1.4820346381628989E-06
(PID.TID 0000.0001) %MON trcstat_ptracer70_max        =   1.0639421382735774E-01
(PID.TID 0000.0001) %MON trcstat_ptracer70_min        =   1.0718625398350031E-07
(PID.TID 0000.0001) %MON trcstat_ptracer70_mean       =   1.4428954527506184E-04
(PID.TID 0000.0001) %MON trcstat_ptracer70_sd         =   1.2063846273359196E-03
(PID.TID 0000.0001) %MON trcstat_ptracer70_del2       =   1.4826686603233686E-06
(PID.TID 0000.0001) %MON trcstat_ptracer71_max        =   2.6598553456839435E-02
(PID.TID 0000.0001) %MON trcstat_ptracer71_min        =   2.6796563495877603E-08
(PID.TID 0000.0001) %MON trcstat_ptracer71_mean       =   3.6068054881680364E-05
(PID.TID 0000.0001) %MON trcstat_ptracer71_sd         =   3.0157759893413994E-04
(PID.TID 0000.0001) %MON trcstat_ptracer71_del2       =   3.7065590639205670E-07
(PID.TID 0000.0001) %MON trcstat_ptracer72_max        =   1.0639421382735774E-01
(PID.TID 0000.0001) %MON trcstat_ptracer72_min        =   1.0718625398350031E-07
(PID.TID 0000.0001) %MON trcstat_ptracer72_mean       =   1.4427221952672143E-04
(PID.TID 0000.0001) %MON trcstat_ptracer72_sd         =   1.2063103957365598E-03
(PID.TID 0000.0001) %MON trcstat_ptracer72_del2       =   1.4826236255682268E-06
(PID.TID 0000.0001) %MON trcstat_ptracer73_max        =   1.0671938627117163E-01
(PID.TID 0000.0001) %MON trcstat_ptracer73_min        =   1.2786288795675741E-07
(PID.TID 0000.0001) %MON trcstat_ptracer73_mean       =   1.4427897179996170E-04
(PID.TID 0000.0001) %MON trcstat_ptracer73_sd         =   1.2062948905398507E-03
(PID.TID 0000.0001) %MON trcstat_ptracer73_del2       =   1.4828099261979199E-06
(PID.TID 0000.0001) %MON trcstat_ptracer74_max        =   2.6679846567792907E-02
(PID.TID 0000.0001) %MON trcstat_ptracer74_min        =   3.1965721989191781E-08
(PID.TID 0000.0001) %MON trcstat_ptracer74_mean       =   3.6069742949990425E-05
(PID.TID 0000.0001) %MON trcstat_ptracer74_sd         =   3.0157372263496269E-04
(PID.TID 0000.0001) %MON trcstat_ptracer74_del2       =   3.7070248154947996E-07
(PID.TID 0000.0001) %MON trcstat_ptracer75_max        =   1.0671938627117163E-01
(PID.TID 0000.0001) %MON trcstat_ptracer75_min        =   1.2786288795675741E-07
(PID.TID 0000.0001) %MON trcstat_ptracer75_mean       =   1.4427897179996170E-04
(PID.TID 0000.0001) %MON trcstat_ptracer75_sd         =   1.2062948905398507E-03
(PID.TID 0000.0001) %MON trcstat_ptracer75_del2       =   1.4828099261979199E-06
(PID.TID 0000.0001) %MON trcstat_ptracer76_max        =   1.0707842539660098E-01
(PID.TID 0000.0001) %MON trcstat_ptracer76_min        =   1.5986432836946704E-07
(PID.TID 0000.0001) %MON trcstat_ptracer76_mean       =   1.4428538745439896E-04
(PID.TID 0000.0001) %MON trcstat_ptracer76_sd         =   1.2061710303576476E-03
(PID.TID 0000.0001) %MON trcstat_ptracer76_del2       =   1.4826187760619714E-06
(PID.TID 0000.0001) %MON trcstat_ptracer77_max        =   1.0707842539660098E-01
(PID.TID 0000.0001) %MON trcstat_ptracer77_min        =   1.5986432836946704E-07
(PID.TID 0000.0001) %MON trcstat_ptracer77_mean       =   1.4428538745439896E-04
(PID.TID 0000.0001) %MON trcstat_ptracer77_sd         =   1.2061710303576476E-03
(PID.TID 0000.0001) %MON trcstat_ptracer77_del2       =   1.4826187760619714E-06
(PID.TID 0000.0001) %MON trcstat_ptracer78_max        =   1.0761458541147916E-01
(PID.TID 0000.0001) %MON trcstat_ptracer78_min        =   2.1065265799156075E-07
(PID.TID 0000.0001) %MON trcstat_ptracer78_mean       =   1.4429826157422916E-04
(PID.TID 0000.0001) %MON trcstat_ptracer78_sd         =   1.2061128490890927E-03
(PID.TID 0000.0001) %MON trcstat_ptracer78_del2       =   1.4827666778151717E-06
(PID.TID 0000.0001) %MON trcstat_ptracer79_max        =   1.0809669083646402E-01
(PID.TID 0000.0001) %MON trcstat_ptracer79_min        =   2.9343219634562960E-07
(PID.TID 0000.0001) %MON trcstat_ptracer79_mean       =   1.4430064464000157E-04
(PID.TID 0000.0001) %MON trcstat_ptracer79_sd         =   1.2055617593531966E-03
(PID.TID 0000.0001) %MON trcstat_ptracer79_del2       =   1.4811622373486386E-06
(PID.TID 0000.0001) %MON trcstat_ptracer80_max        =   1.0872587251545140E-01
(PID.TID 0000.0001) %MON trcstat_ptracer80_min        =   4.3074745734323496E-07
(PID.TID 0000.0001) %MON trcstat_ptracer80_mean       =   1.4430268858557893E-04
(PID.TID 0000.0001) %MON trcstat_ptracer80_sd         =   1.2047583701459543E-03
(PID.TID 0000.0001) %MON trcstat_ptracer80_del2       =   1.4787859656012104E-06
(PID.TID 0000.0001) %MON trcstat_ptracer81_max        =   1.0956744289484568E-01
(PID.TID 0000.0001) %MON trcstat_ptracer81_min        =   6.2180300833957416E-07
(PID.TID 0000.0001) %MON trcstat_ptracer81_mean       =   1.4430448169233575E-04
(PID.TID 0000.0001) %MON trcstat_ptracer81_sd         =   1.2036216543063888E-03
(PID.TID 0000.0001) %MON trcstat_ptracer81_del2       =   1.4754356849293800E-06
(PID.TID 0000.0001) %MON trcstat_ptracer82_max        =   1.0956339861023097E-01
(PID.TID 0000.0001) %MON trcstat_ptracer82_min        =   8.0387154843825941E-08
(PID.TID 0000.0001) %MON trcstat_ptracer82_mean       =   1.4702672407544863E-04
(PID.TID 0000.0001) %MON trcstat_ptracer82_sd         =   1.2278971203536172E-03
(PID.TID 0000.0001) %MON trcstat_ptracer82_del2       =   1.5149320073484398E-06
(PID.TID 0000.0001) %MON trcstat_ptracer83_max        =   1.0906928414391920E-01
(PID.TID 0000.0001) %MON trcstat_ptracer83_min        =   8.0385962042437790E-08
(PID.TID 0000.0001) %MON trcstat_ptracer83_mean       =   1.4701052116499689E-04
(PID.TID 0000.0001) %MON trcstat_ptracer83_sd         =   1.2273299693625430E-03
(PID.TID 0000.0001) %MON trcstat_ptracer83_del2       =   1.5124051423543490E-06
(PID.TID 0000.0001) %MON trcstat_ptracer84_max        =   1.0874179591421021E-01
(PID.TID 0000.0001) %MON trcstat_ptracer84_min        =   8.0385021974192959E-08
(PID.TID 0000.0001) %MON trcstat_ptracer84_mean       =   1.4700026254533144E-04
(PID.TID 0000.0001) %MON trcstat_ptracer84_sd         =   1.2269707157567945E-03
(PID.TID 0000.0001) %MON trcstat_ptracer84_del2       =   1.5107939139479925E-06
(PID.TID 0000.0001) %MON trcstat_ptracer85_max        =   1.0851345979464720E-01
(PID.TID 0000.0001) %MON trcstat_ptracer85_min        =   8.0384283769233495E-08
(PID.TID 0000.0001) %MON trcstat_ptracer85_mean       =   1.4699338107015568E-04
(PID.TID 0000.0001) %MON trcstat_ptracer85_sd         =   1.2267295533600962E-03
(PID.TID 0000.0001) %MON trcstat_ptracer85_del2       =   1.5097056390998285E-06
(PID.TID 0000.0001) %MON trcstat_ptracer86_max        =   1.0835631870151970E-01
(PID.TID 0000.0001) %MON trcstat_ptracer86_min        =   8.0383738328355528E-08
(PID.TID 0000.0001) %MON trcstat_ptracer86_mean       =   1.4698878139064636E-04
(PID.TID 0000.0001) %MON trcstat_ptracer86_sd         =   1.2265682423460529E-03
(PID.TID 0000.0001) %MON trcstat_ptracer86_del2       =   1.5089741511707938E-06
(PID.TID 0000.0001) %MON trcstat_ptracer87_max        =   1.0835608361189886E-01
(PID.TID 0000.0001) %MON trcstat_ptracer87_min        =   8.0383738328354403E-08
(PID.TID 0000.0001) %MON trcstat_ptracer87_mean       =   1.4698877801574685E-04
(PID.TID 0000.0001) %MON trcstat_ptracer87_sd         =   1.2265680963814210E-03
(PID.TID 0000.0001) %MON trcstat_ptracer87_del2       =   1.5089732981533002E-06
(PID.TID 0000.0001) %MON trcstat_ptracer88_max        =   1.0835616690110769E-01
(PID.TID 0000.0001) %MON trcstat_ptracer88_min        =   8.0383738328354707E-08
(PID.TID 0000.0001) %MON trcstat_ptracer88_mean       =   1.4698877902621346E-04
(PID.TID 0000.0001) %MON trcstat_ptracer88_sd         =   1.2265681412021927E-03
(PID.TID 0000.0001) %MON trcstat_ptracer88_del2       =   1.5089735669157766E-06
(PID.TID 0000.0001) %MON trcstat_ptracer89_max        =   1.0835623584705399E-01
(PID.TID 0000.0001) %MON trcstat_ptracer89_min        =   8.0383738328354959E-08
(PID.TID 0000.0001) %MON trcstat_ptracer89_mean       =   1.4698877986266720E-04
(PID.TID 0000.0001) %MON trcstat_ptracer89_sd         =   1.2265681783043701E-03
(PID.TID 0000.0001) %MON trcstat_ptracer89_del2       =   1.5089737893947235E-06
(PID.TID 0000.0001) %MON trcstat_ptracer90_max        =   1.0835629291979579E-01
(PID.TID 0000.0001) %MON trcstat_ptracer90_min        =   8.0383738328355157E-08
(PID.TID 0000.0001) %MON trcstat_ptracer90_mean       =   1.4698878055507494E-04
(PID.TID 0000.0001) %MON trcstat_ptracer90_sd         =   1.2265682090171759E-03
(PID.TID 0000.0001) %MON trcstat_ptracer90_del2       =   1.5089739735605910E-06
(PID.TID 0000.0001) %MON trcstat_ptracer91_max        =   1.0835635266263732E-01
(PID.TID 0000.0001) %MON trcstat_ptracer91_min        =   8.0383738328355409E-08
(PID.TID 0000.0001) %MON trcstat_ptracer91_mean       =   1.4698878132484726E-04
(PID.TID 0000.0001) %MON trcstat_ptracer91_sd         =   1.2265682428060950E-03
(PID.TID 0000.0001) %MON trcstat_ptracer91_del2       =   1.5089741742052537E-06
(PID.TID 0000.0001) %MON trcstat_ptracer92_max        =   1.0835649794793646E-01
(PID.TID 0000.0001) %MON trcstat_ptracer92_min        =   8.0383738328355991E-08
(PID.TID 0000.0001) %MON trcstat_ptracer92_mean       =   1.4698878320277929E-04
(PID.TID 0000.0001) %MON trcstat_ptracer92_sd         =   1.2265683253314206E-03
(PID.TID 0000.0001) %MON trcstat_ptracer92_del2       =   1.5089746646468493E-06
(PID.TID 0000.0001) %MON trcstat_ptracer93_max        =   1.0835650988419754E-01
(PID.TID 0000.0001) %MON trcstat_ptracer93_min        =   8.0383738328356017E-08
(PID.TID 0000.0001) %MON trcstat_ptracer93_mean       =   1.4698878331998694E-04
(PID.TID 0000.0001) %MON trcstat_ptracer93_sd         =   1.2265683307251998E-03
(PID.TID 0000.0001) %MON trcstat_ptracer93_del2       =   1.5089746981682542E-06
(PID.TID 0000.0001) %MON trcstat_ptracer94_max        =   1.0835651976491109E-01
(PID.TID 0000.0001) %MON trcstat_ptracer94_min        =   8.0383738328356044E-08
(PID.TID 0000.0001) %MON trcstat_ptracer94_mean       =   1.4698878341700994E-04
(PID.TID 0000.0001) %MON trcstat_ptracer94_sd         =   1.2265683351901145E-03
(PID.TID 0000.0001) %MON trcstat_ptracer94_del2       =   1.5089747259169282E-06
(PID.TID 0000.0001) %MON trcstat_ptracer95_max        =   1.0835652794406365E-01
(PID.TID 0000.0001) %MON trcstat_ptracer95_min        =   8.0383738328356057E-08
(PID.TID 0000.0001) %MON trcstat_ptracer95_mean       =   1.4698878349732485E-04
(PID.TID 0000.0001) %MON trcstat_ptracer95_sd         =   1.2265683388861222E-03
(PID.TID 0000.0001) %MON trcstat_ptracer95_del2       =   1.5089747488869972E-06
(PID.TID 0000.0001) %MON trcstat_ptracer96_max        =   9.0713638613294841E-03
(PID.TID 0000.0001) %MON trcstat_ptracer96_min        =   7.2533146438199615E-09
(PID.TID 0000.0001) %MON trcstat_ptracer96_mean       =   1.2835306332309833E-05
(PID.TID 0000.0001) %MON trcstat_ptracer96_sd         =   1.0736625132901346E-04
(PID.TID 0000.0001) %MON trcstat_ptracer96_del2       =   1.3144562545205075E-07
(PID.TID 0000.0001) %MON trcstat_ptracer97_max        =   8.3295156223355208E-03
(PID.TID 0000.0001) %MON trcstat_ptracer97_min        =   6.6983762586955085E-09
(PID.TID 0000.0001) %MON trcstat_ptracer97_mean       =   1.1760788037540051E-05
(PID.TID 0000.0001) %MON trcstat_ptracer97_sd         =   9.8408796702436781E-05
(PID.TID 0000.0001) %MON trcstat_ptracer97_del2       =   1.2054828945901546E-07
(PID.TID 0000.0001) %MON trcstat_ptracer98_max        =   7.8750707942321432E-03
(PID.TID 0000.0001) %MON trcstat_ptracer98_min        =   6.3195798747946352E-09
(PID.TID 0000.0001) %MON trcstat_ptracer98_mean       =   1.0993288259844633E-05
(PID.TID 0000.0001) %MON trcstat_ptracer98_sd         =   9.1974569243960939E-05
(PID.TID 0000.0001) %MON trcstat_ptracer98_del2       =   1.1269110629573535E-07
(PID.TID 0000.0001) %MON trcstat_ptracer99_max        =   7.7249756923051050E-03
(PID.TID 0000.0001) %MON trcstat_ptracer99_min        =   6.2141215531665294E-09
(PID.TID 0000.0001) %MON trcstat_ptracer99_mean       =   1.0722837558301756E-05
(PID.TID 0000.0001) %MON trcstat_ptracer99_sd         =   8.9715240505998760E-05
(PID.TID 0000.0001) %MON trcstat_ptracer99_del2       =   1.1011491795046952E-07
(PID.TID 0000.0001) %MON trcstat_ptracer0a_max        =   7.4739288396147069E-04
(PID.TID 0000.0001) %MON trcstat_ptracer0a_min        =   6.1832091564537110E-10
(PID.TID 0000.0001) %MON trcstat_ptracer0a_mean       =   1.0449959898939165E-06
(PID.TID 0000.0001) %MON trcstat_ptracer0a_sd         =   8.7469781681087665E-06
(PID.TID 0000.0001) %MON trcstat_ptracer0a_del2       =   1.0730419613968317E-08
(PID.TID 0000.0001) %MON trcstat_ptracer0b_max        =   7.4739288396147080E-03
(PID.TID 0000.0001) %MON trcstat_ptracer0b_min        =   6.1832091564530108E-09
(PID.TID 0000.0001) %MON trcstat_ptracer0b_mean       =   1.0449959898939175E-05
(PID.TID 0000.0001) %MON trcstat_ptracer0b_sd         =   8.7469781681087682E-05
(PID.TID 0000.0001) %MON trcstat_ptracer0b_del2       =   1.0730419613968304E-07
(PID.TID 0000.0001) %MON trcstat_ptracer0c_max        =   7.3258484701820524E-03
(PID.TID 0000.0001) %MON trcstat_ptracer0c_min        =   6.1666888868678932E-09
(PID.TID 0000.0001) %MON trcstat_ptracer0c_mean       =   1.0405733393526198E-05
(PID.TID 0000.0001) %MON trcstat_ptracer0c_sd         =   8.6457929371255073E-05
(PID.TID 0000.0001) %MON trcstat_ptracer0c_del2       =   1.0550048248483454E-07
(PID.TID 0000.0001) %MON trcstat_ptracer0d_max        =   7.2203191468840351E-04
(PID.TID 0000.0001) %MON trcstat_ptracer0d_min        =   6.1643351380382885E-10
(PID.TID 0000.0001) %MON trcstat_ptracer0d_mean       =   1.0137928885634088E-06
(PID.TID 0000.0001) %MON trcstat_ptracer0d_sd         =   8.4851118680346645E-06
(PID.TID 0000.0001) %MON trcstat_ptracer0d_del2       =   1.0397097216352424E-08
(PID.TID 0000.0001) %MON trcstat_ptracer0e_max        =   7.2203191468840347E-03
(PID.TID 0000.0001) %MON trcstat_ptracer0e_min        =   6.1643351380375976E-09
(PID.TID 0000.0001) %MON trcstat_ptracer0e_mean       =   1.0137928885634080E-05
(PID.TID 0000.0001) %MON trcstat_ptracer0e_sd         =   8.4851118680346656E-05
(PID.TID 0000.0001) %MON trcstat_ptracer0e_del2       =   1.0397097216352440E-07
(PID.TID 0000.0001) %MON trcstat_ptracer0f_max        =   7.0897539659505633E-03
(PID.TID 0000.0001) %MON trcstat_ptracer0f_min        =   6.3662647429809405E-09
(PID.TID 0000.0001) %MON trcstat_ptracer0f_mean       =   1.0033004519277563E-05
(PID.TID 0000.0001) %MON trcstat_ptracer0f_sd         =   8.3565902832142655E-05
(PID.TID 0000.0001) %MON trcstat_ptracer0f_del2       =   1.0209250465171771E-07
(PID.TID 0000.0001) %MON trcstat_ptracer0g_max        =   7.0380614536546138E-04
(PID.TID 0000.0001) %MON trcstat_ptracer0g_min        =   6.3645805525556749E-10
(PID.TID 0000.0001) %MON trcstat_ptracer0g_mean       =   9.8565081727560391E-07
(PID.TID 0000.0001) %MON trcstat_ptracer0g_sd         =   8.2505916228905032E-06
(PID.TID 0000.0001) %MON trcstat_ptracer0g_del2       =   1.0111226439411945E-08
(PID.TID 0000.0001) %MON trcstat_ptracer0h_max        =   7.0380614536546147E-03
(PID.TID 0000.0001) %MON trcstat_ptracer0h_min        =   6.3645805525549861E-09
(PID.TID 0000.0001) %MON trcstat_ptracer0h_mean       =   9.8565081727560438E-06
(PID.TID 0000.0001) %MON trcstat_ptracer0h_sd         =   8.2505916228905039E-05
(PID.TID 0000.0001) %MON trcstat_ptracer0h_del2       =   1.0111226439411943E-07
(PID.TID 0000.0001) %MON trcstat_ptracer0i_max        =   6.9398135230979647E-03
(PID.TID 0000.0001) %MON trcstat_ptracer0i_min        =   7.1173743865032417E-09
(PID.TID 0000.0001) %MON trcstat_ptracer0i_mean       =   9.7348846974848421E-06
(PID.TID 0000.0001) %MON trcstat_ptracer0i_sd         =   8.1227374433031781E-05
(PID.TID 0000.0001) %MON trcstat_ptracer0i_del2       =   9.9356018786400243E-08
(PID.TID 0000.0001) %MON trcstat_ptracer0j_max        =   6.9101348767953801E-04
(PID.TID 0000.0001) %MON trcstat_ptracer0j_min        =   7.1161876030976376E-10
(PID.TID 0000.0001) %MON trcstat_ptracer0j_mean       =   9.6257337941866721E-07
(PID.TID 0000.0001) %MON trcstat_ptracer0j_sd         =   8.0569721376761247E-06
(PID.TID 0000.0001) %MON trcstat_ptracer0j_del2       =   9.8762693063764359E-09
(PID.TID 0000.0001) %MON trcstat_ptracer0k_max        =   6.9101348767953794E-03
(PID.TID 0000.0001) %MON trcstat_ptracer0k_min        =   7.1161876030970065E-09
(PID.TID 0000.0001) %MON trcstat_ptracer0k_mean       =   9.6257337941866518E-06
(PID.TID 0000.0001) %MON trcstat_ptracer0k_sd         =   8.0569721376761271E-05
(PID.TID 0000.0001) %MON trcstat_ptracer0k_del2       =   9.8762693063764528E-08
(PID.TID 0000.0001) %MON trcstat_ptracer0l_max        =   6.8464111782659083E-03
(PID.TID 0000.0001) %MON trcstat_ptracer0l_min        =   8.3271749297514799E-09
(PID.TID 0000.0001) %MON trcstat_ptracer0l_mean       =   9.5134248833591852E-06
(PID.TID 0000.0001) %MON trcstat_ptracer0l_sd         =   7.9460464350905805E-05
(PID.TID 0000.0001) %MON trcstat_ptracer0l_del2       =   9.7289840267930638E-08
(PID.TID 0000.0001) %MON trcstat_ptracer0m_max        =   6.8299082669373806E-04
(PID.TID 0000.0001) %MON trcstat_ptracer0m_min        =   8.3263450876505313E-10
(PID.TID 0000.0001) %MON trcstat_ptracer0m_mean       =   9.4471532672331059E-07
(PID.TID 0000.0001) %MON trcstat_ptracer0m_sd         =   7.9058863114488631E-06
(PID.TID 0000.0001) %MON trcstat_ptracer0m_del2       =   9.6937396922456272E-09
(PID.TID 0000.0001) %MON trcstat_ptracer0n_max        =   6.8299082669373802E-03
(PID.TID 0000.0001) %MON trcstat_ptracer0n_min        =   8.3263450876498779E-09
(PID.TID 0000.0001) %MON trcstat_ptracer0n_mean       =   9.4471532672331161E-06
(PID.TID 0000.0001) %MON trcstat_ptracer0n_sd         =   7.9058863114488682E-05
(PID.TID 0000.0001) %MON trcstat_ptracer0n_del2       =   9.6937396922456331E-08
(PID.TID 0000.0001) %MON trcstat_ptracer0o_max        =   6.7964542199367211E-03
(PID.TID 0000.0001) %MON trcstat_ptracer0o_min        =   1.0262689302574139E-08
(PID.TID 0000.0001) %MON trcstat_ptracer0o_mean       =   9.3537900239953823E-06
(PID.TID 0000.0001) %MON trcstat_ptracer0o_sd         =   7.8163235291411426E-05
(PID.TID 0000.0001) %MON trcstat_ptracer0o_del2       =   9.5774147242063579E-08
(PID.TID 0000.0001) %MON trcstat_ptracer0p_max        =   6.7875534299887373E-03
(PID.TID 0000.0001) %MON trcstat_ptracer0p_min        =   1.0262114640963401E-08
(PID.TID 0000.0001) %MON trcstat_ptracer0p_mean       =   9.3143235122174025E-06
(PID.TID 0000.0001) %MON trcstat_ptracer0p_sd         =   7.7922306770003379E-05
(PID.TID 0000.0001) %MON trcstat_ptracer0p_del2       =   9.5569051419920832E-08
(PID.TID 0000.0001) %MON trcstat_ptracer0q_max        =   6.7857663612652750E-03
(PID.TID 0000.0001) %MON trcstat_ptracer0q_min        =   1.3387012743286744E-08
(PID.TID 0000.0001) %MON trcstat_ptracer0q_mean       =   9.2419188283620436E-06
(PID.TID 0000.0001) %MON trcstat_ptracer0q_sd         =   7.7241438906154979E-05
(PID.TID 0000.0001) %MON trcstat_ptracer0q_del2       =   9.4725738830879433E-08
(PID.TID 0000.0001) %MON trcstat_ptracer0r_max        =   6.7897583062648684E-03
(PID.TID 0000.0001) %MON trcstat_ptracer0r_min        =   1.8522102937521138E-08
(PID.TID 0000.0001) %MON trcstat_ptracer0r_mean       =   9.1643986568707940E-06
(PID.TID 0000.0001) %MON trcstat_ptracer0r_sd         =   7.6567522417164081E-05
(PID.TID 0000.0001) %MON trcstat_ptracer0r_del2       =   9.3899161305717776E-08
(PID.TID 0000.0001) %MON trcstat_ptracer0s_max        =   6.8140601198064740E-03
(PID.TID 0000.0001) %MON trcstat_ptracer0s_min        =   2.7073364638129844E-08
(PID.TID 0000.0001) %MON trcstat_ptracer0s_mean       =   9.1120627416502695E-06
(PID.TID 0000.0001) %MON trcstat_ptracer0s_sd         =   7.6081470705707598E-05
(PID.TID 0000.0001) %MON trcstat_ptracer0s_del2       =   9.3263645659957995E-08
(PID.TID 0000.0001) %MON trcstat_ptracer0t_max        =   6.8582080557672079E-03
(PID.TID 0000.0001) %MON trcstat_ptracer0t_min        =   3.9058081196471000E-08
(PID.TID 0000.0001) %MON trcstat_ptracer0t_mean       =   9.0774453730391921E-06
(PID.TID 0000.0001) %MON trcstat_ptracer0t_sd         =   7.5719752656254634E-05
(PID.TID 0000.0001) %MON trcstat_ptracer0t_del2       =   9.2735008012599144E-08
(PID.TID 0000.0001) %MON trcstat_ptracer0u_max        =   6.7952532475865097E-03
(PID.TID 0000.0001) %MON trcstat_ptracer0u_min        =   5.0240544236314011E-09
(PID.TID 0000.0001) %MON trcstat_ptracer0u_mean       =   9.1874667725914872E-06
(PID.TID 0000.0001) %MON trcstat_ptracer0u_sd         =   7.6683944988501171E-05
(PID.TID 0000.0001) %MON trcstat_ptracer0u_del2       =   9.4417617698630623E-08
(PID.TID 0000.0001) %MON trcstat_ptracer0v_max        =   6.7904101583057567E-03
(PID.TID 0000.0001) %MON trcstat_ptracer0v_min        =   5.0240422349095053E-09
(PID.TID 0000.0001) %MON trcstat_ptracer0v_mean       =   9.1873253428624006E-06
(PID.TID 0000.0001) %MON trcstat_ptracer0v_sd         =   7.6678983118759226E-05
(PID.TID 0000.0001) %MON trcstat_ptracer0v_del2       =   9.4395001447523673E-08
(PID.TID 0000.0001) %MON trcstat_ptracer0w_max        =   6.7867634903935620E-03
(PID.TID 0000.0001) %MON trcstat_ptracer0w_min        =   5.0240321452115188E-09
(PID.TID 0000.0001) %MON trcstat_ptracer0w_mean       =   9.1872188525646382E-06
(PID.TID 0000.0001) %MON trcstat_ptracer0w_sd         =   7.6675247796375304E-05
(PID.TID 0000.0001) %MON trcstat_ptracer0w_del2       =   9.4377980994213558E-08
(PID.TID 0000.0001) %MON trcstat_ptracer0x_max        =   6.7839625211571098E-03
(PID.TID 0000.0001) %MON trcstat_ptracer0x_min        =   5.0240237930637954E-09
(PID.TID 0000.0001) %MON trcstat_ptracer0x_mean       =   9.1871370684805945E-06
(PID.TID 0000.0001) %MON trcstat_ptracer0x_sd         =   7.6672379534724341E-05
(PID.TID 0000.0001) %MON trcstat_ptracer0x_del2       =   9.4364914626956930E-08
(PID.TID 0000.0001) %MON trcstat_ptracer0y_max        =   6.7832346264924664E-03
(PID.TID 0000.0001) %MON trcstat_ptracer0y_min        =   5.0240235517619171E-09
(PID.TID 0000.0001) %MON trcstat_ptracer0y_mean       =   9.1871241221963318E-06
(PID.TID 0000.0001) %MON trcstat_ptracer0y_sd         =   7.6671857297628773E-05
(PID.TID 0000.0001) %MON trcstat_ptracer0y_del2       =   9.4362222565669189E-08
(PID.TID 0000.0001) %MON trcstat_ptracer0z_max        =   6.7933868852587623E-03
(PID.TID 0000.0001) %MON trcstat_ptracer0z_min        =   5.0240953132649560E-09
(PID.TID 0000.0001) %MON trcstat_ptracer0z_mean       =   9.1876054218941381E-06
(PID.TID 0000.0001) %MON trcstat_ptracer0z_sd         =   7.6687019244594531E-05
(PID.TID 0000.0001) %MON trcstat_ptracer0z_del2       =   9.4424023743966458E-08
(PID.TID 0000.0001) %MON trcstat_ptracer0A_max        =   6.7896044655613190E-03
(PID.TID 0000.0001) %MON trcstat_ptracer0A_min        =   5.0240760829256259E-09
(PID.TID 0000.0001) %MON trcstat_ptracer0A_mean       =   9.1874591705652552E-06
(PID.TID 0000.0001) %MON trcstat_ptracer0A_sd         =   7.6682217948549896E-05
(PID.TID 0000.0001) %MON trcstat_ptracer0A_del2       =   9.4403526462937497E-08
(PID.TID 0000.0001) %MON trcstat_ptracer0B_max        =   6.7865431622411033E-03
(PID.TID 0000.0001) %MON trcstat_ptracer0B_min        =   5.0240601642494129E-09
(PID.TID 0000.0001) %MON trcstat_ptracer0B_mean       =   9.1873409524738010E-06
(PID.TID 0000.0001) %MON trcstat_ptracer0B_sd         =   7.6678338365614038E-05
(PID.TID 0000.0001) %MON trcstat_ptracer0B_del2       =   9.4386966071590410E-08
(PID.TID 0000.0001) %MON trcstat_ptracer0C_max        =   6.7840483004289577E-03
(PID.TID 0000.0001) %MON trcstat_ptracer0C_min        =   5.0240469869337997E-09
(PID.TID 0000.0001) %MON trcstat_ptracer0C_mean       =   9.1872449170009987E-06
(PID.TID 0000.0001) %MON trcstat_ptracer0C_sd         =   7.6675185717893518E-05
(PID.TID 0000.0001) %MON trcstat_ptracer0C_del2       =   9.4373508889047274E-08
(PID.TID 0000.0001) %MON trcstat_ptracer0D_max        =   6.7814702340410170E-03
(PID.TID 0000.0001) %MON trcstat_ptracer0D_min        =   5.0240315585297923E-09
(PID.TID 0000.0001) %MON trcstat_ptracer0D_mean       =   9.1871384516662765E-06
(PID.TID 0000.0001) %MON trcstat_ptracer0D_sd         =   7.6671748363653841E-05
(PID.TID 0000.0001) %MON trcstat_ptracer0D_del2       =   9.4359114664339701E-08
(PID.TID 0000.0001) %MON trcstat_ptracer0E_max        =   6.7752614091360795E-03
(PID.TID 0000.0001) %MON trcstat_ptracer0E_min        =   5.0239943385071591E-09
(PID.TID 0000.0001) %MON trcstat_ptracer0E_mean       =   9.1868843393050709E-06
(PID.TID 0000.0001) %MON trcstat_ptracer0E_sd         =   7.6663510210647136E-05
(PID.TID 0000.0001) %MON trcstat_ptracer0E_del2       =   9.4324555415647729E-08
(PID.TID 0000.0001) %MON trcstat_ptracer0F_max        =   6.7747470840251144E-03
(PID.TID 0000.0001) %MON trcstat_ptracer0F_min        =   5.0239924970646678E-09
(PID.TID 0000.0001) %MON trcstat_ptracer0F_mean       =   9.1868694123695254E-06
(PID.TID 0000.0001) %MON trcstat_ptracer0F_sd         =   7.6662988466213956E-05
(PID.TID 0000.0001) %MON trcstat_ptracer0F_del2       =   9.4322169607814769E-08
(PID.TID 0000.0001) %MON trcstat_ptracer0G_max        =   6.7743227738067038E-03
(PID.TID 0000.0001) %MON trcstat_ptracer0G_min        =   5.0239909727375742E-09
(PID.TID 0000.0001) %MON trcstat_ptracer0G_mean       =   9.1868571284959018E-06
(PID.TID 0000.0001) %MON trcstat_ptracer0G_sd         =   7.6662558877887117E-05
(PID.TID 0000.0001) %MON trcstat_ptracer0G_del2       =   9.4320205593795827E-08
(PID.TID 0000.0001) %MON trcstat_ptracer0H_max        =   6.7739724273685742E-03
(PID.TID 0000.0001) %MON trcstat_ptracer0H_min        =   5.0239897109153704E-09
(PID.TID 0000.0001) %MON trcstat_ptracer0H_mean       =   9.1868470031926384E-06
(PID.TID 0000.0001) %MON trcstat_ptracer0H_sd         =   7.6662204604691553E-05
(PID.TID 0000.0001) %MON trcstat_ptracer0H_del2       =   9.4318586004744489E-08
(PID.TID 0000.0001) %MON trcstat_ptracer0I_max        =   0.0000000000000000E+00
(PID.TID 0000.0001) %MON trcstat_ptracer0I_min        =   0.0000000000000000E+00
(PID.TID 0000.0001) %MON trcstat_ptracer0I_mean       =   0.0000000000000000E+00
(PID.TID 0000.0001) %MON trcstat_ptracer0I_sd         =   0.0000000000000000E+00
(PID.TID 0000.0001) %MON trcstat_ptracer0I_del2       =   0.0000000000000000E+00
(PID.TID 0000.0001) %MON trcstat_ptracer0J_max        =   0.0000000000000000E+00
(PID.TID 0000.0001) %MON trcstat_ptracer0J_min        =   0.0000000000000000E+00
(PID.TID 0000.0001) %MON trcstat_ptracer0J_mean       =   0.0000000000000000E+00
(PID.TID 0000.0001) %MON trcstat_ptracer0J_sd         =   0.0000000000000000E+00
(PID.TID 0000.0001) %MON trcstat_ptracer0J_del2       =   0.0000000000000000E+00
(PID.TID 0000.0001) %MON trcstat_ptracer0K_max        =   0.0000000000000000E+00
(PID.TID 0000.0001) %MON trcstat_ptracer0K_min        =   0.0000000000000000E+00
(PID.TID 0000.0001) %MON trcstat_ptracer0K_mean       =   0.0000000000000000E+00
(PID.TID 0000.0001) %MON trcstat_ptracer0K_sd         =   0.0000000000000000E+00
(PID.TID 0000.0001) %MON trcstat_ptracer0K_del2       =   0.0000000000000000E+00
(PID.TID 0000.0001) %MON trcstat_ptracer0L_max        =   0.0000000000000000E+00
(PID.TID 0000.0001) %MON trcstat_ptracer0L_min        =   0.0000000000000000E+00
(PID.TID 0000.0001) %MON trcstat_ptracer0L_mean       =   0.0000000000000000E+00
(PID.TID 0000.0001) %MON trcstat_ptracer0L_sd         =   0.0000000000000000E+00
(PID.TID 0000.0001) %MON trcstat_ptracer0L_del2       =   0.0000000000000000E+00
(PID.TID 0000.0001) %MON trcstat_ptracer0M_max        =   0.0000000000000000E+00
(PID.TID 0000.0001) %MON trcstat_ptracer0M_min        =   0.0000000000000000E+00
(PID.TID 0000.0001) %MON trcstat_ptracer0M_mean       =   0.0000000000000000E+00
(PID.TID 0000.0001) %MON trcstat_ptracer0M_sd         =   0.0000000000000000E+00
(PID.TID 0000.0001) %MON trcstat_ptracer0M_del2       =   0.0000000000000000E+00
(PID.TID 0000.0001) %MON trcstat_ptracer0N_max        =   0.0000000000000000E+00
(PID.TID 0000.0001) %MON trcstat_ptracer0N_min        =   0.0000000000000000E+00
(PID.TID 0000.0001) %MON trcstat_ptracer0N_mean       =   0.0000000000000000E+00
(PID.TID 0000.0001) %MON trcstat_ptracer0N_sd         =   0.0000000000000000E+00
(PID.TID 0000.0001) %MON trcstat_ptracer0N_del2       =   0.0000000000000000E+00
(PID.TID 0000.0001) %MON trcstat_ptracer0O_max        =   1.0574051432838982E-01
(PID.TID 0000.0001) %MON trcstat_ptracer0O_min        =   8.7276577501284642E-08
(PID.TID 0000.0001) %MON trcstat_ptracer0O_mean       =   1.4425428513096985E-04
(PID.TID 0000.0001) %MON trcstat_ptracer0O_sd         =   1.2060142137289014E-03
(PID.TID 0000.0001) %MON trcstat_ptracer0O_del2       =   1.4810612152955486E-06
(PID.TID 0000.0001) %MON trcstat_ptracer0P_max        =   0.0000000000000000E+00
(PID.TID 0000.0001) %MON trcstat_ptracer0P_min        =   0.0000000000000000E+00
(PID.TID 0000.0001) %MON trcstat_ptracer0P_mean       =   0.0000000000000000E+00
(PID.TID 0000.0001) %MON trcstat_ptracer0P_sd         =   0.0000000000000000E+00
(PID.TID 0000.0001) %MON trcstat_ptracer0P_del2       =   0.0000000000000000E+00
(PID.TID 0000.0001) %MON trcstat_ptracer0Q_max        =   0.0000000000000000E+00
(PID.TID 0000.0001) %MON trcstat_ptracer0Q_min        =   0.0000000000000000E+00
(PID.TID 0000.0001) %MON trcstat_ptracer0Q_mean       =   0.0000000000000000E+00
(PID.TID 0000.0001) %MON trcstat_ptracer0Q_sd         =   0.0000000000000000E+00
(PID.TID 0000.0001) %MON trcstat_ptracer0Q_del2       =   0.0000000000000000E+00
(PID.TID 0000.0001) %MON trcstat_ptracer0R_max        =   1.0607441176378149E-01
(PID.TID 0000.0001) %MON trcstat_ptracer0R_min        =   9.3528647530030953E-08
(PID.TID 0000.0001) %MON trcstat_ptracer0R_mean       =   1.4426408310110785E-04
(PID.TID 0000.0001) %MON trcstat_ptracer0R_sd         =   1.2062135892894484E-03
(PID.TID 0000.0001) %MON trcstat_ptracer0R_del2       =   1.4820346381628989E-06
(PID.TID 0000.0001) %MON trcstat_ptracer0S_max        =   0.0000000000000000E+00
(PID.TID 0000.0001) %MON trcstat_ptracer0S_min        =   0.0000000000000000E+00
(PID.TID 0000.0001) %MON trcstat_ptracer0S_mean       =   0.0000000000000000E+00
(PID.TID 0000.0001) %MON trcstat_ptracer0S_sd         =   0.0000000000000000E+00
(PID.TID 0000.0001) %MON trcstat_ptracer0S_del2       =   0.0000000000000000E+00
(PID.TID 0000.0001) %MON trcstat_ptracer0T_max        =   0.0000000000000000E+00
(PID.TID 0000.0001) %MON trcstat_ptracer0T_min        =   0.0000000000000000E+00
(PID.TID 0000.0001) %MON trcstat_ptracer0T_mean       =   0.0000000000000000E+00
(PID.TID 0000.0001) %MON trcstat_ptracer0T_sd         =   0.0000000000000000E+00
(PID.TID 0000.0001) %MON trcstat_ptracer0T_del2       =   0.0000000000000000E+00
(PID.TID 0000.0001) %MON trcstat_ptracer0U_max        =   1.0639421382735774E-01
(PID.TID 0000.0001) %MON trcstat_ptracer0U_min        =   1.0718625398350031E-07
(PID.TID 0000.0001) %MON trcstat_ptracer0U_mean       =   1.4427221952672143E-04
(PID.TID 0000.0001) %MON trcstat_ptracer0U_sd         =   1.2063103957365598E-03
(PID.TID 0000.0001) %MON trcstat_ptracer0U_del2       =   1.4826236255682268E-06
(PID.TID 0000.0001) %MON trcstat_ptracer0V_max        =   0.0000000000000000E+00
(PID.TID 0000.0001) %MON trcstat_ptracer0V_min        =   0.0000000000000000E+00
(PID.TID 0000.0001) %MON trcstat_ptracer0V_mean       =   0.0000000000000000E+00
(PID.TID 0000.0001) %MON trcstat_ptracer0V_sd         =   0.0000000000000000E+00
(PID.TID 0000.0001) %MON trcstat_ptracer0V_del2       =   0.0000000000000000E+00
(PID.TID 0000.0001) %MON trcstat_ptracer0W_max        =   0.0000000000000000E+00
(PID.TID 0000.0001) %MON trcstat_ptracer0W_min        =   0.0000000000000000E+00
(PID.TID 0000.0001) %MON trcstat_ptracer0W_mean       =   0.0000000000000000E+00
(PID.TID 0000.0001) %MON trcstat_ptracer0W_sd         =   0.0000000000000000E+00
(PID.TID 0000.0001) %MON trcstat_ptracer0W_del2       =   0.0000000000000000E+00
(PID.TID 0000.0001) %MON trcstat_ptracer0X_max        =   1.0671938627117163E-01
(PID.TID 0000.0001) %MON trcstat_ptracer0X_min        =   1.2786288795675741E-07
(PID.TID 0000.0001) %MON trcstat_ptracer0X_mean       =   1.4427897179996170E-04
(PID.TID 0000.0001) %MON trcstat_ptracer0X_sd         =   1.2062948905398507E-03
(PID.TID 0000.0001) %MON trcstat_ptracer0X_del2       =   1.4828099261979199E-06
(PID.TID 0000.0001) %MON trcstat_ptracer0Y_max        =   0.0000000000000000E+00
(PID.TID 0000.0001) %MON trcstat_ptracer0Y_min        =   0.0000000000000000E+00
(PID.TID 0000.0001) %MON trcstat_ptracer0Y_mean       =   0.0000000000000000E+00
(PID.TID 0000.0001) %MON trcstat_ptracer0Y_sd         =   0.0000000000000000E+00
(PID.TID 0000.0001) %MON trcstat_ptracer0Y_del2       =   0.0000000000000000E+00
(PID.TID 0000.0001) %MON trcstat_ptracer0Z_max        =   0.0000000000000000E+00
(PID.TID 0000.0001) %MON trcstat_ptracer0Z_min        =   0.0000000000000000E+00
(PID.TID 0000.0001) %MON trcstat_ptracer0Z_mean       =   0.0000000000000000E+00
(PID.TID 0000.0001) %MON trcstat_ptracer0Z_sd         =   0.0000000000000000E+00
(PID.TID 0000.0001) %MON trcstat_ptracer0Z_del2       =   0.0000000000000000E+00
(PID.TID 0000.0001) %MON trcstat_ptracer1a_max        =   1.0707842539660098E-01
(PID.TID 0000.0001) %MON trcstat_ptracer1a_min        =   1.5986432836946704E-07
(PID.TID 0000.0001) %MON trcstat_ptracer1a_mean       =   1.4428538745439896E-04
(PID.TID 0000.0001) %MON trcstat_ptracer1a_sd         =   1.2061710303576476E-03
(PID.TID 0000.0001) %MON trcstat_ptracer1a_del2       =   1.4826187760619714E-06
(PID.TID 0000.0001) %MON trcstat_ptracer1b_max        =   0.0000000000000000E+00
(PID.TID 0000.0001) %MON trcstat_ptracer1b_min        =   0.0000000000000000E+00
(PID.TID 0000.0001) %MON trcstat_ptracer1b_mean       =   0.0000000000000000E+00
(PID.TID 0000.0001) %MON trcstat_ptracer1b_sd         =   0.0000000000000000E+00
(PID.TID 0000.0001) %MON trcstat_ptracer1b_del2       =   0.0000000000000000E+00
(PID.TID 0000.0001) %MON trcstat_ptracer1c_max        =   1.0761458541147916E-01
(PID.TID 0000.0001) %MON trcstat_ptracer1c_min        =   2.1065265799156075E-07
(PID.TID 0000.0001) %MON trcstat_ptracer1c_mean       =   1.4429826157422916E-04
(PID.TID 0000.0001) %MON trcstat_ptracer1c_sd         =   1.2061128490890927E-03
(PID.TID 0000.0001) %MON trcstat_ptracer1c_del2       =   1.4827666778151717E-06
(PID.TID 0000.0001) %MON trcstat_ptracer1d_max        =   1.0809669083646402E-01
(PID.TID 0000.0001) %MON trcstat_ptracer1d_min        =   2.9343219634562960E-07
(PID.TID 0000.0001) %MON trcstat_ptracer1d_mean       =   1.4430064464000157E-04
(PID.TID 0000.0001) %MON trcstat_ptracer1d_sd         =   1.2055617593531966E-03
(PID.TID 0000.0001) %MON trcstat_ptracer1d_del2       =   1.4811622373486386E-06
(PID.TID 0000.0001) %MON trcstat_ptracer1e_max        =   1.0872587251545140E-01
(PID.TID 0000.0001) %MON trcstat_ptracer1e_min        =   4.3074745734323496E-07
(PID.TID 0000.0001) %MON trcstat_ptracer1e_mean       =   1.4430268858557893E-04
(PID.TID 0000.0001) %MON trcstat_ptracer1e_sd         =   1.2047583701459543E-03
(PID.TID 0000.0001) %MON trcstat_ptracer1e_del2       =   1.4787859656012104E-06
(PID.TID 0000.0001) %MON trcstat_ptracer1f_max        =   1.0956744289484568E-01
(PID.TID 0000.0001) %MON trcstat_ptracer1f_min        =   6.2180300833957416E-07
(PID.TID 0000.0001) %MON trcstat_ptracer1f_mean       =   1.4430448169233575E-04
(PID.TID 0000.0001) %MON trcstat_ptracer1f_sd         =   1.2036216543063888E-03
(PID.TID 0000.0001) %MON trcstat_ptracer1f_del2       =   1.4754356849293800E-06
(PID.TID 0000.0001) %MON trcstat_ptracer1g_max        =   0.0000000000000000E+00
(PID.TID 0000.0001) %MON trcstat_ptracer1g_min        =   0.0000000000000000E+00
(PID.TID 0000.0001) %MON trcstat_ptracer1g_mean       =   0.0000000000000000E+00
(PID.TID 0000.0001) %MON trcstat_ptracer1g_sd         =   0.0000000000000000E+00
(PID.TID 0000.0001) %MON trcstat_ptracer1g_del2       =   0.0000000000000000E+00
(PID.TID 0000.0001) %MON trcstat_ptracer1h_max        =   0.0000000000000000E+00
(PID.TID 0000.0001) %MON trcstat_ptracer1h_min        =   0.0000000000000000E+00
(PID.TID 0000.0001) %MON trcstat_ptracer1h_mean       =   0.0000000000000000E+00
(PID.TID 0000.0001) %MON trcstat_ptracer1h_sd         =   0.0000000000000000E+00
(PID.TID 0000.0001) %MON trcstat_ptracer1h_del2       =   0.0000000000000000E+00
(PID.TID 0000.0001) %MON trcstat_ptracer1i_max        =   0.0000000000000000E+00
(PID.TID 0000.0001) %MON trcstat_ptracer1i_min        =   0.0000000000000000E+00
(PID.TID 0000.0001) %MON trcstat_ptracer1i_mean       =   0.0000000000000000E+00
(PID.TID 0000.0001) %MON trcstat_ptracer1i_sd         =   0.0000000000000000E+00
(PID.TID 0000.0001) %MON trcstat_ptracer1i_del2       =   0.0000000000000000E+00
(PID.TID 0000.0001) %MON trcstat_ptracer1j_max        =   0.0000000000000000E+00
(PID.TID 0000.0001) %MON trcstat_ptracer1j_min        =   0.0000000000000000E+00
(PID.TID 0000.0001) %MON trcstat_ptracer1j_mean       =   0.0000000000000000E+00
(PID.TID 0000.0001) %MON trcstat_ptracer1j_sd         =   0.0000000000000000E+00
(PID.TID 0000.0001) %MON trcstat_ptracer1j_del2       =   0.0000000000000000E+00
(PID.TID 0000.0001) %MON trcstat_ptracer1k_max        =   0.0000000000000000E+00
(PID.TID 0000.0001) %MON trcstat_ptracer1k_min        =   0.0000000000000000E+00
(PID.TID 0000.0001) %MON trcstat_ptracer1k_mean       =   0.0000000000000000E+00
(PID.TID 0000.0001) %MON trcstat_ptracer1k_sd         =   0.0000000000000000E+00
(PID.TID 0000.0001) %MON trcstat_ptracer1k_del2       =   0.0000000000000000E+00
(PID.TID 0000.0001) %MON trcstat_ptracer1l_max        =   0.0000000000000000E+00
(PID.TID 0000.0001) %MON trcstat_ptracer1l_min        =   0.0000000000000000E+00
(PID.TID 0000.0001) %MON trcstat_ptracer1l_mean       =   0.0000000000000000E+00
(PID.TID 0000.0001) %MON trcstat_ptracer1l_sd         =   0.0000000000000000E+00
(PID.TID 0000.0001) %MON trcstat_ptracer1l_del2       =   0.0000000000000000E+00
(PID.TID 0000.0001) %MON trcstat_ptracer1m_max        =   0.0000000000000000E+00
(PID.TID 0000.0001) %MON trcstat_ptracer1m_min        =   0.0000000000000000E+00
(PID.TID 0000.0001) %MON trcstat_ptracer1m_mean       =   0.0000000000000000E+00
(PID.TID 0000.0001) %MON trcstat_ptracer1m_sd         =   0.0000000000000000E+00
(PID.TID 0000.0001) %MON trcstat_ptracer1m_del2       =   0.0000000000000000E+00
(PID.TID 0000.0001) %MON trcstat_ptracer1n_max        =   0.0000000000000000E+00
(PID.TID 0000.0001) %MON trcstat_ptracer1n_min        =   0.0000000000000000E+00
(PID.TID 0000.0001) %MON trcstat_ptracer1n_mean       =   0.0000000000000000E+00
(PID.TID 0000.0001) %MON trcstat_ptracer1n_sd         =   0.0000000000000000E+00
(PID.TID 0000.0001) %MON trcstat_ptracer1n_del2       =   0.0000000000000000E+00
(PID.TID 0000.0001) %MON trcstat_ptracer1o_max        =   0.0000000000000000E+00
(PID.TID 0000.0001) %MON trcstat_ptracer1o_min        =   0.0000000000000000E+00
(PID.TID 0000.0001) %MON trcstat_ptracer1o_mean       =   0.0000000000000000E+00
(PID.TID 0000.0001) %MON trcstat_ptracer1o_sd         =   0.0000000000000000E+00
(PID.TID 0000.0001) %MON trcstat_ptracer1o_del2       =   0.0000000000000000E+00
(PID.TID 0000.0001) %MON trcstat_ptracer1p_max        =   0.0000000000000000E+00
(PID.TID 0000.0001) %MON trcstat_ptracer1p_min        =   0.0000000000000000E+00
(PID.TID 0000.0001) %MON trcstat_ptracer1p_mean       =   0.0000000000000000E+00
(PID.TID 0000.0001) %MON trcstat_ptracer1p_sd         =   0.0000000000000000E+00
(PID.TID 0000.0001) %MON trcstat_ptracer1p_del2       =   0.0000000000000000E+00
(PID.TID 0000.0001) %MON trcstat_ptracer1q_max        =   0.0000000000000000E+00
(PID.TID 0000.0001) %MON trcstat_ptracer1q_min        =   0.0000000000000000E+00
(PID.TID 0000.0001) %MON trcstat_ptracer1q_mean       =   0.0000000000000000E+00
(PID.TID 0000.0001) %MON trcstat_ptracer1q_sd         =   0.0000000000000000E+00
(PID.TID 0000.0001) %MON trcstat_ptracer1q_del2       =   0.0000000000000000E+00
(PID.TID 0000.0001) %MON trcstat_ptracer1r_max        =   0.0000000000000000E+00
(PID.TID 0000.0001) %MON trcstat_ptracer1r_min        =   0.0000000000000000E+00
(PID.TID 0000.0001) %MON trcstat_ptracer1r_mean       =   0.0000000000000000E+00
(PID.TID 0000.0001) %MON trcstat_ptracer1r_sd         =   0.0000000000000000E+00
(PID.TID 0000.0001) %MON trcstat_ptracer1r_del2       =   0.0000000000000000E+00
(PID.TID 0000.0001) %MON trcstat_ptracer1s_max        =   0.0000000000000000E+00
(PID.TID 0000.0001) %MON trcstat_ptracer1s_min        =   0.0000000000000000E+00
(PID.TID 0000.0001) %MON trcstat_ptracer1s_mean       =   0.0000000000000000E+00
(PID.TID 0000.0001) %MON trcstat_ptracer1s_sd         =   0.0000000000000000E+00
(PID.TID 0000.0001) %MON trcstat_ptracer1s_del2       =   0.0000000000000000E+00
(PID.TID 0000.0001) %MON trcstat_ptracer1t_max        =   0.0000000000000000E+00
(PID.TID 0000.0001) %MON trcstat_ptracer1t_min        =   0.0000000000000000E+00
(PID.TID 0000.0001) %MON trcstat_ptracer1t_mean       =   0.0000000000000000E+00
(PID.TID 0000.0001) %MON trcstat_ptracer1t_sd         =   0.0000000000000000E+00
(PID.TID 0000.0001) %MON trcstat_ptracer1t_del2       =   0.0000000000000000E+00
(PID.TID 0000.0001) %MON trcstat_ptracer1u_max        =   1.0858419580922073E-05
(PID.TID 0000.0001) %MON trcstat_ptracer1u_min        =   8.1759128498305222E-12
(PID.TID 0000.0001) %MON trcstat_ptracer1u_mean       =   1.3255414192991203E-08
(PID.TID 0000.0001) %MON trcstat_ptracer1u_sd         =   1.1650300830931142E-07
(PID.TID 0000.0001) %MON trcstat_ptracer1u_del2       =   1.5104160554373825E-10
(PID.TID 0000.0001) %MON trcstat_ptracer1v_max        =   9.6811352162870258E-06
(PID.TID 0000.0001) %MON trcstat_ptracer1v_min        =   7.3082668997902771E-12
(PID.TID 0000.0001) %MON trcstat_ptracer1v_mean       =   1.1969941139797087E-08
(PID.TID 0000.0001) %MON trcstat_ptracer1v_sd         =   1.0427667208572470E-07
(PID.TID 0000.0001) %MON trcstat_ptracer1v_del2       =   1.3349666618219507E-10
(PID.TID 0000.0001) %MON trcstat_ptracer1w_max        =   8.8186852507454589E-06
(PID.TID 0000.0001) %MON trcstat_ptracer1w_min        =   6.7007962627151079E-12
(PID.TID 0000.0001) %MON trcstat_ptracer1w_mean       =   1.1053794806151433E-08
(PID.TID 0000.0001) %MON trcstat_ptracer1w_sd         =   9.5501676782746237E-08
(PID.TID 0000.0001) %MON trcstat_ptracer1w_del2       =   1.2104294978887193E-10
(PID.TID 0000.0001) %MON trcstat_ptracer1x_max        =   8.1907864764157221E-06
(PID.TID 0000.0001) %MON trcstat_ptracer1x_min        =   6.2965324985540142E-12
(PID.TID 0000.0001) %MON trcstat_ptracer1x_mean       =   1.0405823244156136E-08
(PID.TID 0000.0001) %MON trcstat_ptracer1x_sd         =   8.9250653465122290E-08
(PID.TID 0000.0001) %MON trcstat_ptracer1x_del2       =   1.1225305813011108E-10
(PID.TID 0000.0001) %MON trcstat_ptracer1y_max        =   2.7162930955098916E-06
(PID.TID 0000.0001) %MON trcstat_ptracer1y_min        =   2.1730798782915469E-12
(PID.TID 0000.0001) %MON trcstat_ptracer1y_mean       =   3.6675580396753122E-09
(PID.TID 0000.0001) %MON trcstat_ptracer1y_sd         =   3.0768975381826595E-08
(PID.TID 0000.0001) %MON trcstat_ptracer1y_del2       =   3.7919223315117945E-11
(PID.TID 0000.0001) %MON trcstat_ptracer1z_max        =   7.7321833819092907E-06
(PID.TID 0000.0001) %MON trcstat_ptracer1z_min        =   6.0567725760805000E-12
(PID.TID 0000.0001) %MON trcstat_ptracer1z_mean       =   9.9513637653175836E-09
(PID.TID 0000.0001) %MON trcstat_ptracer1z_sd         =   8.4825296459316039E-08
(PID.TID 0000.0001) %MON trcstat_ptracer1z_del2       =   1.0604822851481672E-10
(PID.TID 0000.0001) %MON trcstat_ptracer1A_max        =   7.4068166934538312E-06
(PID.TID 0000.0001) %MON trcstat_ptracer1A_min        =   5.9582587447137773E-12
(PID.TID 0000.0001) %MON trcstat_ptracer1A_mean       =   9.6526267680436908E-09
(PID.TID 0000.0001) %MON trcstat_ptracer1A_sd         =   8.1816043724082985E-08
(PID.TID 0000.0001) %MON trcstat_ptracer1A_del2       =   1.0176294327709675E-10
(PID.TID 0000.0001) %MON trcstat_ptracer1B_max        =   2.6943114577816515E-06
(PID.TID 0000.0001) %MON trcstat_ptracer1B_min        =   2.2142361831837185E-12
(PID.TID 0000.0001) %MON trcstat_ptracer1B_mean       =   3.6466686737446655E-09
(PID.TID 0000.0001) %MON trcstat_ptracer1B_sd         =   3.0558333281443847E-08
(PID.TID 0000.0001) %MON trcstat_ptracer1B_del2       =   3.7606020449271811E-11
(PID.TID 0000.0001) %MON trcstat_ptracer1C_max        =   7.3889034960928963E-06
(PID.TID 0000.0001) %MON trcstat_ptracer1C_min        =   5.9579890079735925E-12
(PID.TID 0000.0001) %MON trcstat_ptracer1C_mean       =   9.6349631161895969E-09
(PID.TID 0000.0001) %MON trcstat_ptracer1C_sd         =   8.1689484034362876E-08
(PID.TID 0000.0001) %MON trcstat_ptracer1C_del2       =   1.0157907516716668E-10
(PID.TID 0000.0001) %MON trcstat_ptracer1D_max        =   7.1753687807413645E-06
(PID.TID 0000.0001) %MON trcstat_ptracer1D_min        =   6.1820378882074347E-12
(PID.TID 0000.0001) %MON trcstat_ptracer1D_mean       =   9.4305824805705476E-09
(PID.TID 0000.0001) %MON trcstat_ptracer1D_sd         =   7.9631719375643556E-08
(PID.TID 0000.0001) %MON trcstat_ptracer1D_del2       =   9.8722685331743216E-11
(PID.TID 0000.0001) %MON trcstat_ptracer1E_max        =   2.6866289075081056E-06
(PID.TID 0000.0001) %MON trcstat_ptracer1E_min        =   2.3596646613402515E-12
(PID.TID 0000.0001) %MON trcstat_ptracer1E_mean       =   3.6328478595920001E-09
(PID.TID 0000.0001) %MON trcstat_ptracer1E_sd         =   3.0424914484867740E-08
(PID.TID 0000.0001) %MON trcstat_ptracer1E_del2       =   3.7436889445885902E-11
(PID.TID 0000.0001) %MON trcstat_ptracer1F_max        =   7.1635972983732701E-06
(PID.TID 0000.0001) %MON trcstat_ptracer1F_min        =   6.1818595432237072E-12
(PID.TID 0000.0001) %MON trcstat_ptracer1F_mean       =   9.4195654765654023E-09
(PID.TID 0000.0001) %MON trcstat_ptracer1F_sd         =   7.9552093338708004E-08
(PID.TID 0000.0001) %MON trcstat_ptracer1F_del2       =   9.8607695336777840E-11
(PID.TID 0000.0001) %MON trcstat_ptracer1G_max        =   7.0159577406866505E-06
(PID.TID 0000.0001) %MON trcstat_ptracer1G_min        =   6.9350370766488143E-12
(PID.TID 0000.0001) %MON trcstat_ptracer1G_mean       =   9.2809160629509148E-09
(PID.TID 0000.0001) %MON trcstat_ptracer1G_sd         =   7.8136698131433146E-08
(PID.TID 0000.0001) %MON trcstat_ptracer1G_del2       =   9.6629932826165345E-11
(PID.TID 0000.0001) %MON trcstat_ptracer1H_max        =   2.6832272800109503E-06
(PID.TID 0000.0001) %MON trcstat_ptracer1H_min        =   2.6945426668462451E-12
(PID.TID 0000.0001) %MON trcstat_ptracer1H_mean       =   3.6235689561027258E-09
(PID.TID 0000.0001) %MON trcstat_ptracer1H_sd         =   3.0332513729971324E-08
(PID.TID 0000.0001) %MON trcstat_ptracer1H_del2       =   3.7317892620313493E-11
(PID.TID 0000.0001) %MON trcstat_ptracer1I_max        =   7.0085644985174498E-06
(PID.TID 0000.0001) %MON trcstat_ptracer1I_min        =   6.9349230482912628E-12
(PID.TID 0000.0001) %MON trcstat_ptracer1I_mean       =   9.2744527116325049E-09
(PID.TID 0000.0001) %MON trcstat_ptracer1I_sd         =   7.8089431545121824E-08
(PID.TID 0000.0001) %MON trcstat_ptracer1I_del2       =   9.6561632447255833E-11
(PID.TID 0000.0001) %MON trcstat_ptracer1J_max        =   6.9107787929642235E-06
(PID.TID 0000.0001) %MON trcstat_ptracer1J_min        =   8.1495963015559722E-12
(PID.TID 0000.0001) %MON trcstat_ptracer1J_mean       =   9.1822074602290593E-09
(PID.TID 0000.0001) %MON trcstat_ptracer1J_sd         =   7.7129604376764407E-08
(PID.TID 0000.0001) %MON trcstat_ptracer1J_del2       =   9.5204242121802020E-11
(PID.TID 0000.0001) %MON trcstat_ptracer1K_max        =   2.6833717183955755E-06
(PID.TID 0000.0001) %MON trcstat_ptracer1K_min        =   3.2068667035711957E-12
(PID.TID 0000.0001) %MON trcstat_ptracer1K_mean       =   3.6174627340919781E-09
(PID.TID 0000.0001) %MON trcstat_ptracer1K_sd         =   3.0268307452301325E-08
(PID.TID 0000.0001) %MON trcstat_ptracer1K_del2       =   3.7231702647101232E-11
(PID.TID 0000.0001) %MON trcstat_ptracer1L_max        =   6.9062629453411612E-06
(PID.TID 0000.0001) %MON trcstat_ptracer1L_min        =   8.1495253360141203E-12
(PID.TID 0000.0001) %MON trcstat_ptracer1L_mean       =   9.1785081974740810E-09
(PID.TID 0000.0001) %MON trcstat_ptracer1L_sd         =   7.7102216468753897E-08
(PID.TID 0000.0001) %MON trcstat_ptracer1L_del2       =   9.5164524738594013E-11
(PID.TID 0000.0001) %MON trcstat_ptracer1M_max        =   6.8470868623240240E-06
(PID.TID 0000.0001) %MON trcstat_ptracer1M_min        =   1.0100779819172614E-11
(PID.TID 0000.0001) %MON trcstat_ptracer1M_mean       =   9.1185375173783701E-09
(PID.TID 0000.0001) %MON trcstat_ptracer1M_sd         =   7.6461102020145274E-08
(PID.TID 0000.0001) %MON trcstat_ptracer1M_del2       =   9.4240860662697203E-11
(PID.TID 0000.0001) %MON trcstat_ptracer1N_max        =   6.8444115845479538E-06
(PID.TID 0000.0001) %MON trcstat_ptracer1N_min        =   1.0100736899835628E-11
(PID.TID 0000.0001) %MON trcstat_ptracer1N_mean       =   9.1164743029632631E-09
(PID.TID 0000.0001) %MON trcstat_ptracer1N_sd         =   7.6445637316705488E-08
(PID.TID 0000.0001) %MON trcstat_ptracer1N_del2       =   9.4218327669848568E-11
(PID.TID 0000.0001) %MON trcstat_ptracer1O_max        =   6.8229035715119203E-06
(PID.TID 0000.0001) %MON trcstat_ptracer1O_min        =   1.3241414615175869E-11
(PID.TID 0000.0001) %MON trcstat_ptracer1O_mean       =   9.0788801851974719E-09
(PID.TID 0000.0001) %MON trcstat_ptracer1O_sd         =   7.6033537995258067E-08
(PID.TID 0000.0001) %MON trcstat_ptracer1O_del2       =   9.3634913346709577E-11
(PID.TID 0000.0001) %MON trcstat_ptracer1P_max        =   6.8153207704278630E-06
(PID.TID 0000.0001) %MON trcstat_ptracer1P_min        =   1.8392130539699215E-11
(PID.TID 0000.0001) %MON trcstat_ptracer1P_mean       =   9.0540846758527451E-09
(PID.TID 0000.0001) %MON trcstat_ptracer1P_sd         =   7.5733597887529727E-08
(PID.TID 0000.0001) %MON trcstat_ptracer1P_del2       =   9.3146016198557724E-11
(PID.TID 0000.0001) %MON trcstat_ptracer1Q_max        =   6.8307384605326921E-06
(PID.TID 0000.0001) %MON trcstat_ptracer1Q_min        =   2.6958380578616934E-11
(PID.TID 0000.0001) %MON trcstat_ptracer1Q_mean       =   9.0392046946623075E-09
(PID.TID 0000.0001) %MON trcstat_ptracer1Q_sd         =   7.5521407236592607E-08
(PID.TID 0000.0001) %MON trcstat_ptracer1Q_del2       =   9.2758653313604645E-11
(PID.TID 0000.0001) %MON trcstat_ptracer1R_max        =   6.8686175579863468E-06
(PID.TID 0000.0001) %MON trcstat_ptracer1R_min        =   3.8932738995716561E-11
(PID.TID 0000.0001) %MON trcstat_ptracer1R_mean       =   9.0304935346456830E-09
(PID.TID 0000.0001) %MON trcstat_ptracer1R_sd         =   7.5353962041004159E-08
(PID.TID 0000.0001) %MON trcstat_ptracer1R_del2       =   9.2406176133209059E-11
(PID.TID 0000.0001) %MON trcstat_ptracer1S_max        =   6.8710695090966613E-06
(PID.TID 0000.0001) %MON trcstat_ptracer1S_min        =   5.0242938069180875E-12
(PID.TID 0000.0001) %MON trcstat_ptracer1S_mean       =   9.1895878767138012E-09
(PID.TID 0000.0001) %MON trcstat_ptracer1S_sd         =   7.6759112167919810E-08
(PID.TID 0000.0001) %MON trcstat_ptracer1S_del2       =   9.4760113969064252E-11
(PID.TID 0000.0001) %MON trcstat_ptracer1T_max        =   6.8509002826509913E-06
(PID.TID 0000.0001) %MON trcstat_ptracer1T_min        =   5.0242403939203229E-12
(PID.TID 0000.0001) %MON trcstat_ptracer1T_mean       =   9.1890220924813973E-09
(PID.TID 0000.0001) %MON trcstat_ptracer1T_sd         =   7.6738994704737832E-08
(PID.TID 0000.0001) %MON trcstat_ptracer1T_del2       =   9.4668363667087779E-11
(PID.TID 0000.0001) %MON trcstat_ptracer1U_max        =   6.8354733184442535E-06
(PID.TID 0000.0001) %MON trcstat_ptracer1U_min        =   5.0241961791927069E-12
(PID.TID 0000.0001) %MON trcstat_ptracer1U_mean       =   9.1885883332381716E-09
(PID.TID 0000.0001) %MON trcstat_ptracer1U_sd         =   7.6723606856804802E-08
(PID.TID 0000.0001) %MON trcstat_ptracer1U_del2       =   9.4598230417317027E-11
(PID.TID 0000.0001) %MON trcstat_ptracer1V_max        =   6.8234654992325447E-06
(PID.TID 0000.0001) %MON trcstat_ptracer1V_min        =   5.0241595786981295E-12
(PID.TID 0000.0001) %MON trcstat_ptracer1V_mean       =   9.1882499608477280E-09
(PID.TID 0000.0001) %MON trcstat_ptracer1V_sd         =   7.6711627038549822E-08
(PID.TID 0000.0001) %MON trcstat_ptracer1V_del2       =   9.4543649150936962E-11
(PID.TID 0000.0001) %MON trcstat_ptracer1W_max        =   6.8329450710523059E-06
(PID.TID 0000.0001) %MON trcstat_ptracer1W_min        =   5.0242062146602132E-12
(PID.TID 0000.0001) %MON trcstat_ptracer1W_mean       =   9.1885700498368567E-09
(PID.TID 0000.0001) %MON trcstat_ptracer1W_sd         =   7.6722466164938874E-08
(PID.TID 0000.0001) %MON trcstat_ptracer1W_del2       =   9.4591424796252279E-11
(PID.TID 0000.0001) %MON trcstat_ptracer1X_max        =   6.8781164286632117E-06
(PID.TID 0000.0001) %MON trcstat_ptracer1X_min        =   5.0245428987130035E-12
(PID.TID 0000.0001) %MON trcstat_ptracer1X_mean       =   9.1907782269536702E-09
(PID.TID 0000.0001) %MON trcstat_ptracer1X_sd         =   7.6791786317984568E-08
(PID.TID 0000.0001) %MON trcstat_ptracer1X_del2       =   9.4872240719998883E-11
(PID.TID 0000.0001) %MON trcstat_ptracer1Y_max        =   6.8592744393556190E-06
(PID.TID 0000.0001) %MON trcstat_ptracer1Y_min        =   5.0244465895337327E-12
(PID.TID 0000.0001) %MON trcstat_ptracer1Y_mean       =   9.1900704898818532E-09
(PID.TID 0000.0001) %MON trcstat_ptracer1Y_sd         =   7.6768376852203041E-08
(PID.TID 0000.0001) %MON trcstat_ptracer1Y_del2       =   9.4772017527874866E-11
(PID.TID 0000.0001) %MON trcstat_ptracer1Z_max        =   6.8439383818145408E-06
(PID.TID 0000.0001) %MON trcstat_ptracer1Z_min        =   5.0243668657905165E-12
(PID.TID 0000.0001) %MON trcstat_ptracer1Z_mean       =   9.1894931404206840E-09
(PID.TID 0000.0001) %MON trcstat_ptracer1Z_sd         =   7.6749313634676287E-08
(PID.TID 0000.0001) %MON trcstat_ptracer1Z_del2       =   9.4690434631285868E-11
(PID.TID 0000.0001) %MON trcstat_ptracer2a_max        =   6.8314002313435397E-06
(PID.TID 0000.0001) %MON trcstat_ptracer2a_min        =   5.0243008712998277E-12
(PID.TID 0000.0001) %MON trcstat_ptracer2a_mean       =   9.1890208602298514E-09
(PID.TID 0000.0001) %MON trcstat_ptracer2a_sd         =   7.6733732494849973E-08
(PID.TID 0000.0001) %MON trcstat_ptracer2a_del2       =   9.4623769091469739E-11
(PID.TID 0000.0001) %MON trcstat_ptracer2b_max        =   6.8126914232653821E-06
(PID.TID 0000.0001) %MON trcstat_ptracer2b_min        =   5.0241936082564111E-12
(PID.TID 0000.0001) %MON trcstat_ptracer2b_mean       =   9.1882823080283817E-09
(PID.TID 0000.0001) %MON trcstat_ptracer2b_sd         =   7.6709649876673053E-08
(PID.TID 0000.0001) %MON trcstat_ptracer2b_del2       =   9.4521987446087729E-11
(PID.TID 0000.0001) %MON trcstat_ptracer2c_max        =   6.7853630455051467E-06
(PID.TID 0000.0001) %MON trcstat_ptracer2c_min        =   5.0240305039532119E-12
(PID.TID 0000.0001) %MON trcstat_ptracer2c_mean       =   9.1871722931171097E-09
(PID.TID 0000.0001) %MON trcstat_ptracer2c_sd         =   7.6673601646864501E-08
(PID.TID 0000.0001) %MON trcstat_ptracer2c_del2       =   9.4370602077734096E-11
(PID.TID 0000.0001) %MON trcstat_ptracer2d_max        =   6.7830975460599510E-06
(PID.TID 0000.0001) %MON trcstat_ptracer2d_min        =   5.0240224344471252E-12
(PID.TID 0000.0001) %MON trcstat_ptracer2d_mean       =   9.1871072240489603E-09
(PID.TID 0000.0001) %MON trcstat_ptracer2d_sd         =   7.6671323476453868E-08
(PID.TID 0000.0001) %MON trcstat_ptracer2d_del2       =   9.4360179741246645E-11
(PID.TID 0000.0001) %MON trcstat_ptracer2e_max        =   6.7812305076658460E-06
(PID.TID 0000.0001) %MON trcstat_ptracer2e_min        =   5.0240157545933766E-12
(PID.TID 0000.0001) %MON trcstat_ptracer2e_mean       =   9.1870535881657407E-09
(PID.TID 0000.0001) %MON trcstat_ptracer2e_sd         =   7.6669445380978634E-08
(PID.TID 0000.0001) %MON trcstat_ptracer2e_del2       =   9.4351589607689292E-11
(PID.TID 0000.0001) %MON trcstat_ptracer2f_max        =   6.7796903011730259E-06
(PID.TID 0000.0001) %MON trcstat_ptracer2f_min        =   5.0240102250794811E-12
(PID.TID 0000.0001) %MON trcstat_ptracer2f_mean       =   9.1870093228826541E-09
(PID.TID 0000.0001) %MON trcstat_ptracer2f_sd         =   7.6667895131351886E-08
(PID.TID 0000.0001) %MON trcstat_ptracer2f_del2       =   9.4344499750861659E-11
(PID.TID 0000.0001) %MON trcstat_ptracer2g_max        =   2.1726344158923619E-01
(PID.TID 0000.0001) %MON trcstat_ptracer2g_min        =   1.7904236539417745E-07
(PID.TID 0000.0001) %MON trcstat_ptracer2g_mean       =   1.9803373479360120E-04
(PID.TID 0000.0001) %MON trcstat_ptracer2g_sd         =   1.9259392752698408E-03
(PID.TID 0000.0001) %MON trcstat_ptracer2g_del2       =   2.6255832024514192E-06
(PID.TID 0000.0001) %MON trcstat_ptracer2h_max        =   2.1764275637139224E-01
(PID.TID 0000.0001) %MON trcstat_ptracer2h_min        =   1.8051629789695118E-07
(PID.TID 0000.0001) %MON trcstat_ptracer2h_mean       =   2.0200423360418633E-04
(PID.TID 0000.0001) %MON trcstat_ptracer2h_sd         =   1.9509063735633385E-03
(PID.TID 0000.0001) %MON trcstat_ptracer2h_del2       =   2.5777188638651271E-06
(PID.TID 0000.0001) %MON trcstat_ptracer2i_max        =   2.1796017017616176E-01
(PID.TID 0000.0001) %MON trcstat_ptracer2i_min        =   1.8249802910525308E-07
(PID.TID 0000.0001) %MON trcstat_ptracer2i_mean       =   2.0595244759785258E-04
(PID.TID 0000.0001) %MON trcstat_ptracer2i_sd         =   1.9758124297330512E-03
(PID.TID 0000.0001) %MON trcstat_ptracer2i_del2       =   2.5679396437953808E-06
(PID.TID 0000.0001) %MON trcstat_ptracer2j_max        =   2.1822434955970729E-01
(PID.TID 0000.0001) %MON trcstat_ptracer2j_min        =   1.8520576233711261E-07
(PID.TID 0000.0001) %MON trcstat_ptracer2j_mean       =   2.0987396835907553E-04
(PID.TID 0000.0001) %MON trcstat_ptracer2j_sd         =   2.0005228053571705E-03
(PID.TID 0000.0001) %MON trcstat_ptracer2j_del2       =   2.5774552578333717E-06
(PID.TID 0000.0001) %MON trcstat_ptracer2k_max        =   2.1826197294516465E-02
(PID.TID 0000.0001) %MON trcstat_ptracer2k_min        =   1.8862017209901093E-08
(PID.TID 0000.0001) %MON trcstat_ptracer2k_mean       =   2.0646526947223495E-05
(PID.TID 0000.0001) %MON trcstat_ptracer2k_sd         =   1.9792671385686033E-04
(PID.TID 0000.0001) %MON trcstat_ptracer2k_del2       =   2.5530203435936716E-07
(PID.TID 0000.0001) %MON trcstat_ptracer2l_max        =   2.1892685771332809E-01
(PID.TID 0000.0001) %MON trcstat_ptracer2l_min        =   1.9037263486563485E-07
(PID.TID 0000.0001) %MON trcstat_ptracer2l_mean       =   2.5868071240020866E-04
(PID.TID 0000.0001) %MON trcstat_ptracer2l_sd         =   2.3004734604669497E-03
(PID.TID 0000.0001) %MON trcstat_ptracer2l_del2       =   2.8562785107330171E-06
(PID.TID 0000.0001) %MON trcstat_ptracer2m_max        =   2.2686846891864865E-01
(PID.TID 0000.0001) %MON trcstat_ptracer2m_min        =   1.9685997711866693E-07
(PID.TID 0000.0001) %MON trcstat_ptracer2m_mean       =   2.9783454638681721E-04
(PID.TID 0000.0001) %MON trcstat_ptracer2m_sd         =   2.5647429152099509E-03
(PID.TID 0000.0001) %MON trcstat_ptracer2m_del2       =   3.1130512837295697E-06
(PID.TID 0000.0001) %MON trcstat_ptracer2n_max        =   2.1799699953724321E-02
(PID.TID 0000.0001) %MON trcstat_ptracer2n_min        =   1.9321646521297248E-08
(PID.TID 0000.0001) %MON trcstat_ptracer2n_mean       =   1.9796549200377309E-05
(PID.TID 0000.0001) %MON trcstat_ptracer2n_sd         =   1.9254295873223171E-04
(PID.TID 0000.0001) %MON trcstat_ptracer2n_del2       =   2.5052298692723027E-07
(PID.TID 0000.0001) %MON trcstat_ptracer2o_max        =   2.1878997272467460E-01
(PID.TID 0000.0001) %MON trcstat_ptracer2o_min        =   1.9529758064810108E-07
(PID.TID 0000.0001) %MON trcstat_ptracer2o_mean       =   2.5178272703974463E-04
(PID.TID 0000.0001) %MON trcstat_ptracer2o_sd         =   2.2577748420482195E-03
(PID.TID 0000.0001) %MON trcstat_ptracer2o_del2       =   2.8105049615762053E-06
(PID.TID 0000.0001) %MON trcstat_ptracer2p_max        =   2.1908125828731853E-01
(PID.TID 0000.0001) %MON trcstat_ptracer2p_min        =   2.1016134638735895E-07
(PID.TID 0000.0001) %MON trcstat_ptracer2p_mean       =   2.7922645229118198E-04
(PID.TID 0000.0001) %MON trcstat_ptracer2p_sd         =   2.4245371586043775E-03
(PID.TID 0000.0001) %MON trcstat_ptracer2p_del2       =   2.9832346790705839E-06
(PID.TID 0000.0001) %MON trcstat_ptracer2q_max        =   2.1789065891853646E-02
(PID.TID 0000.0001) %MON trcstat_ptracer2q_min        =   2.0851832902925359E-08
(PID.TID 0000.0001) %MON trcstat_ptracer2q_mean       =   1.8939883267569795E-05
(PID.TID 0000.0001) %MON trcstat_ptracer2q_sd         =   1.8714767608385980E-04
(PID.TID 0000.0001) %MON trcstat_ptracer2q_del2       =   2.4599387746319253E-07
(PID.TID 0000.0001) %MON trcstat_ptracer2r_max        =   2.1883642961963196E-01
(PID.TID 0000.0001) %MON trcstat_ptracer2r_min        =   2.0978067148637644E-07
(PID.TID 0000.0001) %MON trcstat_ptracer2r_mean       =   2.4459755315642295E-04
(PID.TID 0000.0001) %MON trcstat_ptracer2r_sd         =   2.2141845402482881E-03
(PID.TID 0000.0001) %MON trcstat_ptracer2r_del2       =   2.7682443660854892E-06
(PID.TID 0000.0001) %MON trcstat_ptracer2s_max        =   2.1911761566905114E-01
(PID.TID 0000.0001) %MON trcstat_ptracer2s_min        =   2.4071760130038539E-07
(PID.TID 0000.0001) %MON trcstat_ptracer2s_mean       =   2.7237473464202465E-04
(PID.TID 0000.0001) %MON trcstat_ptracer2s_sd         =   2.3836698625582537E-03
(PID.TID 0000.0001) %MON trcstat_ptracer2s_del2       =   2.9417347048036211E-06
(PID.TID 0000.0001) %MON trcstat_ptracer2t_max        =   2.1769825552996273E-02
(PID.TID 0000.0001) %MON trcstat_ptracer2t_min        =   2.1391275334018371E-08
(PID.TID 0000.0001) %MON trcstat_ptracer2t_mean       =   1.8076852471221872E-05
(PID.TID 0000.0001) %MON trcstat_ptracer2t_sd         =   1.8165685311252584E-04
(PID.TID 0000.0001) %MON trcstat_ptracer2t_del2       =   2.4139816296641322E-07
(PID.TID 0000.0001) %MON trcstat_ptracer2u_max        =   2.1882544170994153E-01
(PID.TID 0000.0001) %MON trcstat_ptracer2u_min        =   2.4010234565676597E-07
(PID.TID 0000.0001) %MON trcstat_ptracer2u_mean       =   2.3710973132897784E-04
(PID.TID 0000.0001) %MON trcstat_ptracer2u_sd         =   2.1684942313380182E-03
(PID.TID 0000.0001) %MON trcstat_ptracer2u_del2       =   2.7246984749605253E-06
(PID.TID 0000.0001) %MON trcstat_ptracer2v_max        =   2.1910066917699225E-01
(PID.TID 0000.0001) %MON trcstat_ptracer2v_min        =   2.8693328006993398E-07
(PID.TID 0000.0001) %MON trcstat_ptracer2v_mean       =   2.6628874258555901E-04
(PID.TID 0000.0001) %MON trcstat_ptracer2v_sd         =   2.3465227261336126E-03
(PID.TID 0000.0001) %MON trcstat_ptracer2v_del2       =   2.9024725647097706E-06
(PID.TID 0000.0001) %MON trcstat_ptracer2w_max        =   2.1747464244990192E-02
(PID.TID 0000.0001) %MON trcstat_ptracer2w_min        =   1.8214138784708823E-08
(PID.TID 0000.0001) %MON trcstat_ptracer2w_mean       =   1.7211399774658874E-05
(PID.TID 0000.0001) %MON trcstat_ptracer2w_sd         =   1.7609516512708125E-04
(PID.TID 0000.0001) %MON trcstat_ptracer2w_del2       =   2.3674852870071984E-07
(PID.TID 0000.0001) %MON trcstat_ptracer2x_max        =   2.1875203011810262E-01
(PID.TID 0000.0001) %MON trcstat_ptracer2x_min        =   2.8590606737367909E-07
(PID.TID 0000.0001) %MON trcstat_ptracer2x_mean       =   2.2934880059996264E-04
(PID.TID 0000.0001) %MON trcstat_ptracer2x_sd         =   2.1207967175100487E-03
(PID.TID 0000.0001) %MON trcstat_ptracer2x_del2       =   2.6797925809084673E-06
(PID.TID 0000.0001) %MON trcstat_ptracer2y_max        =   2.1902771453291456E-01
(PID.TID 0000.0001) %MON trcstat_ptracer2y_min        =   3.5837791105769258E-07
(PID.TID 0000.0001) %MON trcstat_ptracer2y_mean       =   2.5984835322812326E-04
(PID.TID 0000.0001) %MON trcstat_ptracer2y_sd         =   2.3069917761954751E-03
(PID.TID 0000.0001) %MON trcstat_ptracer2y_del2       =   2.8609559117176652E-06
(PID.TID 0000.0001) %MON trcstat_ptracer2z_max        =   2.1861181431047103E-01
(PID.TID 0000.0001) %MON trcstat_ptracer2z_min        =   3.5661271152445946E-07
(PID.TID 0000.0001) %MON trcstat_ptracer2z_mean       =   2.2134979262866035E-04
(PID.TID 0000.0001) %MON trcstat_ptracer2z_sd         =   2.0712454376026141E-03
(PID.TID 0000.0001) %MON trcstat_ptracer2z_del2       =   2.6336805448786769E-06
(PID.TID 0000.0001) %MON trcstat_ptracer2A_max        =   2.1896551452085630E-01
(PID.TID 0000.0001) %MON trcstat_ptracer2A_min        =   4.7160509621087618E-07
(PID.TID 0000.0001) %MON trcstat_ptracer2A_mean       =   2.5305914409726616E-04
(PID.TID 0000.0001) %MON trcstat_ptracer2A_sd         =   2.2654251398427855E-03
(PID.TID 0000.0001) %MON trcstat_ptracer2A_del2       =   2.8184576816252326E-06
(PID.TID 0000.0001) %MON trcstat_ptracer2B_max        =   2.1882174000706020E-01
(PID.TID 0000.0001) %MON trcstat_ptracer2B_min        =   6.2390817221660027E-07
(PID.TID 0000.0001) %MON trcstat_ptracer2B_mean       =   2.4591610711771731E-04
(PID.TID 0000.0001) %MON trcstat_ptracer2B_sd         =   2.2209490774391053E-03
(PID.TID 0000.0001) %MON trcstat_ptracer2B_del2       =   2.7719527844677881E-06
(PID.TID 0000.0001) %MON trcstat_ptracer2C_max        =   2.1860546801763289E-01
(PID.TID 0000.0001) %MON trcstat_ptracer2C_min        =   5.4783262867440473E-07
(PID.TID 0000.0001) %MON trcstat_ptracer2C_mean       =   2.3846581999640142E-04
(PID.TID 0000.0001) %MON trcstat_ptracer2C_sd         =   2.1741391922150111E-03
(PID.TID 0000.0001) %MON trcstat_ptracer2C_del2       =   2.7232208467953775E-06
(PID.TID 0000.0001) %MON trcstat_ptracer2D_max        =   2.1829349301558820E-01
(PID.TID 0000.0001) %MON trcstat_ptracer2D_min        =   4.7524442247921393E-07
(PID.TID 0000.0001) %MON trcstat_ptracer2D_mean       =   2.3073929771648069E-04
(PID.TID 0000.0001) %MON trcstat_ptracer2D_sd         =   2.1250100357007129E-03
(PID.TID 0000.0001) %MON trcstat_ptracer2D_del2       =   2.6720839011643855E-06
(PID.TID 0000.0001) // =======================================================
(PID.TID 0000.0001) // End MONITOR ptracers field statistics
(PID.TID 0000.0001) // =======================================================
 Compute Stats, Diag. #   3209  PP        vol(   0 ): 1.326E+18  Parms: SM P    MR      
 Compute Stats, Diag. #   3210  Nfix      vol(   0 ): 1.326E+18  Parms: SM P    MR      
 Compute Stats, Diag. #   3211  Denit     vol(   0 ): 1.326E+18  Parms: SM P    MR      
(PID.TID 0000.0001) // =======================================================
(PID.TID 0000.0001) // Begin MONITOR EXF statistics
(PID.TID 0000.0001) // =======================================================
(PID.TID 0000.0001) %MON exf_tsnumber                 =                     2
(PID.TID 0000.0001) %MON exf_time_sec                 =   2.1600000000000000E+04
(PID.TID 0000.0001) %MON exf_ustress_max              =   0.0000000000000000E+00
(PID.TID 0000.0001) %MON exf_ustress_min              =   0.0000000000000000E+00
(PID.TID 0000.0001) %MON exf_ustress_mean             =   0.0000000000000000E+00
(PID.TID 0000.0001) %MON exf_ustress_sd               =   0.0000000000000000E+00
(PID.TID 0000.0001) %MON exf_ustress_del2             =   0.0000000000000000E+00
(PID.TID 0000.0001) %MON exf_vstress_max              =   0.0000000000000000E+00
(PID.TID 0000.0001) %MON exf_vstress_min              =   0.0000000000000000E+00
(PID.TID 0000.0001) %MON exf_vstress_mean             =   0.0000000000000000E+00
(PID.TID 0000.0001) %MON exf_vstress_sd               =   0.0000000000000000E+00
(PID.TID 0000.0001) %MON exf_vstress_del2             =   0.0000000000000000E+00
(PID.TID 0000.0001) %MON exf_hflux_max                =   0.0000000000000000E+00
(PID.TID 0000.0001) %MON exf_hflux_min                =   0.0000000000000000E+00
(PID.TID 0000.0001) %MON exf_hflux_mean               =   0.0000000000000000E+00
(PID.TID 0000.0001) %MON exf_hflux_sd                 =   0.0000000000000000E+00
(PID.TID 0000.0001) %MON exf_hflux_del2               =   0.0000000000000000E+00
(PID.TID 0000.0001) %MON exf_sflux_max                =   0.0000000000000000E+00
(PID.TID 0000.0001) %MON exf_sflux_min                =   0.0000000000000000E+00
(PID.TID 0000.0001) %MON exf_sflux_mean               =   0.0000000000000000E+00
(PID.TID 0000.0001) %MON exf_sflux_sd                 =   0.0000000000000000E+00
(PID.TID 0000.0001) %MON exf_sflux_del2               =   0.0000000000000000E+00
(PID.TID 0000.0001) %MON exf_uwind_max                =   0.0000000000000000E+00
(PID.TID 0000.0001) %MON exf_uwind_min                =   0.0000000000000000E+00
(PID.TID 0000.0001) %MON exf_uwind_mean               =   0.0000000000000000E+00
(PID.TID 0000.0001) %MON exf_uwind_sd                 =   0.0000000000000000E+00
(PID.TID 0000.0001) %MON exf_uwind_del2               =   0.0000000000000000E+00
(PID.TID 0000.0001) %MON exf_vwind_max                =   0.0000000000000000E+00
(PID.TID 0000.0001) %MON exf_vwind_min                =   0.0000000000000000E+00
(PID.TID 0000.0001) %MON exf_vwind_mean               =   0.0000000000000000E+00
(PID.TID 0000.0001) %MON exf_vwind_sd                 =   0.0000000000000000E+00
(PID.TID 0000.0001) %MON exf_vwind_del2               =   0.0000000000000000E+00
(PID.TID 0000.0001) %MON exf_wspeed_max               =   0.0000000000000000E+00
(PID.TID 0000.0001) %MON exf_wspeed_min               =   0.0000000000000000E+00
(PID.TID 0000.0001) %MON exf_wspeed_mean              =   0.0000000000000000E+00
(PID.TID 0000.0001) %MON exf_wspeed_sd                =   0.0000000000000000E+00
(PID.TID 0000.0001) %MON exf_wspeed_del2              =   0.0000000000000000E+00
(PID.TID 0000.0001) %MON exf_evap_max                 =   0.0000000000000000E+00
(PID.TID 0000.0001) %MON exf_evap_min                 =   0.0000000000000000E+00
(PID.TID 0000.0001) %MON exf_evap_mean                =   0.0000000000000000E+00
(PID.TID 0000.0001) %MON exf_evap_sd                  =   0.0000000000000000E+00
(PID.TID 0000.0001) %MON exf_evap_del2                =   0.0000000000000000E+00
(PID.TID 0000.0001) // =======================================================
(PID.TID 0000.0001) // End MONITOR EXF statistics
(PID.TID 0000.0001) // =======================================================
(PID.TID 0000.0001) // =======================================================
(PID.TID 0000.0001) // Begin MONITOR dynamic field statistics
(PID.TID 0000.0001) // =======================================================
(PID.TID 0000.0001) %MON time_tsnumber                =                     3
(PID.TID 0000.0001) %MON time_secondsf                =   3.2400000000000000E+04
(PID.TID 0000.0001) %MON dynstat_eta_max              =   0.0000000000000000E+00
(PID.TID 0000.0001) %MON dynstat_eta_min              =   0.0000000000000000E+00
(PID.TID 0000.0001) %MON dynstat_eta_mean             =   0.0000000000000000E+00
(PID.TID 0000.0001) %MON dynstat_eta_sd               =   0.0000000000000000E+00
(PID.TID 0000.0001) %MON dynstat_eta_del2             =   0.0000000000000000E+00
(PID.TID 0000.0001) %MON dynstat_uvel_max             =   8.2787792384624481E-01
(PID.TID 0000.0001) %MON dynstat_uvel_min             =  -7.7366523444652557E-01
(PID.TID 0000.0001) %MON dynstat_uvel_mean            =   2.3066982591608389E-03
(PID.TID 0000.0001) %MON dynstat_uvel_sd              =   2.2979161536388806E-02
(PID.TID 0000.0001) %MON dynstat_uvel_del2            =   2.6227845153628303E-05
(PID.TID 0000.0001) %MON dynstat_vvel_max             =   1.1516935825347900E+00
(PID.TID 0000.0001) %MON dynstat_vvel_min             =  -1.0230533313006163E+00
(PID.TID 0000.0001) %MON dynstat_vvel_mean            =  -1.5131824096095898E-05
(PID.TID 0000.0001) %MON dynstat_vvel_sd              =   1.1885823701117357E-02
(PID.TID 0000.0001) %MON dynstat_vvel_del2            =   2.4170510971956760E-05
(PID.TID 0000.0001) %MON dynstat_wvel_max             =   6.4016921169240959E-04
(PID.TID 0000.0001) %MON dynstat_wvel_min             =  -6.3662792672403157E-04
(PID.TID 0000.0001) %MON dynstat_wvel_mean            =   2.3019587771288361E-14
(PID.TID 0000.0001) %MON dynstat_wvel_sd              =   1.0870304383848631E-05
(PID.TID 0000.0001) %MON dynstat_wvel_del2            =   1.9959563334565958E-08
(PID.TID 0000.0001) %MON dynstat_theta_max            =   3.1863665103912354E+01
(PID.TID 0000.0001) %MON dynstat_theta_min            =  -2.6629422307014465E+00
(PID.TID 0000.0001) %MON dynstat_theta_mean           =   3.6064508065863925E+00
(PID.TID 0000.0001) %MON dynstat_theta_sd             =   4.4517882410402230E+00
(PID.TID 0000.0001) %MON dynstat_theta_del2           =   3.7718845281229908E-04
(PID.TID 0000.0001) %MON dynstat_salt_max             =   3.9530662536621094E+01
(PID.TID 0000.0001) %MON dynstat_salt_min             =   2.6606716156005859E+01
(PID.TID 0000.0001) %MON dynstat_salt_mean            =   3.4722087530526316E+01
(PID.TID 0000.0001) %MON dynstat_salt_sd              =   3.6487592919979761E-01
(PID.TID 0000.0001) %MON dynstat_salt_del2            =   7.1771759170648059E-05
(PID.TID 0000.0001) %MON dynstat_sst_max              =   3.1863665103912354E+01
(PID.TID 0000.0001) %MON dynstat_sst_min              =  -1.9882244467735291E+00
(PID.TID 0000.0001) %MON dynstat_sst_mean             =   1.9157269012249536E+01
(PID.TID 0000.0001) %MON dynstat_sst_sd               =   9.5402596008918312E+00
(PID.TID 0000.0001) %MON dynstat_sst_del2             =   2.2734774587362667E-03
(PID.TID 0000.0001) %MON dynstat_sss_max              =   3.9530662536621094E+01
(PID.TID 0000.0001) %MON dynstat_sss_min              =   2.6606716156005859E+01
(PID.TID 0000.0001) %MON dynstat_sss_mean             =   3.4860314302816874E+01
(PID.TID 0000.0001) %MON dynstat_sss_sd               =   1.0783502037450308E+00
(PID.TID 0000.0001) %MON dynstat_sss_del2             =   6.1366118957301055E-04
(PID.TID 0000.0001) %MON forcing_qnet_max             =   0.0000000000000000E+00
(PID.TID 0000.0001) %MON forcing_qnet_min             =   0.0000000000000000E+00
(PID.TID 0000.0001) %MON forcing_qnet_mean            =   0.0000000000000000E+00
(PID.TID 0000.0001) %MON forcing_qnet_sd              =   0.0000000000000000E+00
(PID.TID 0000.0001) %MON forcing_qnet_del2            =   0.0000000000000000E+00
(PID.TID 0000.0001) %MON forcing_qsw_max              =   0.0000000000000000E+00
(PID.TID 0000.0001) %MON forcing_qsw_min              =   0.0000000000000000E+00
(PID.TID 0000.0001) %MON forcing_qsw_mean             =   0.0000000000000000E+00
(PID.TID 0000.0001) %MON forcing_qsw_sd               =   0.0000000000000000E+00
(PID.TID 0000.0001) %MON forcing_qsw_del2             =   0.0000000000000000E+00
(PID.TID 0000.0001) %MON forcing_empmr_max            =   0.0000000000000000E+00
(PID.TID 0000.0001) %MON forcing_empmr_min            =   0.0000000000000000E+00
(PID.TID 0000.0001) %MON forcing_empmr_mean           =   0.0000000000000000E+00
(PID.TID 0000.0001) %MON forcing_empmr_sd             =   0.0000000000000000E+00
(PID.TID 0000.0001) %MON forcing_empmr_del2           =   0.0000000000000000E+00
(PID.TID 0000.0001) %MON forcing_fu_max               =   0.0000000000000000E+00
(PID.TID 0000.0001) %MON forcing_fu_min               =   0.0000000000000000E+00
(PID.TID 0000.0001) %MON forcing_fu_mean              =   0.0000000000000000E+00
(PID.TID 0000.0001) %MON forcing_fu_sd                =   0.0000000000000000E+00
(PID.TID 0000.0001) %MON forcing_fu_del2              =   0.0000000000000000E+00
(PID.TID 0000.0001) %MON forcing_fv_max               =   0.0000000000000000E+00
(PID.TID 0000.0001) %MON forcing_fv_min               =   0.0000000000000000E+00
(PID.TID 0000.0001) %MON forcing_fv_mean              =   0.0000000000000000E+00
(PID.TID 0000.0001) %MON forcing_fv_sd                =   0.0000000000000000E+00
(PID.TID 0000.0001) %MON forcing_fv_del2              =   0.0000000000000000E+00
(PID.TID 0000.0001) %MON advcfl_uvel_max              =   1.1894788553648365E-01
(PID.TID 0000.0001) %MON advcfl_vvel_max              =   1.1187779607106567E-01
(PID.TID 0000.0001) %MON advcfl_wvel_max              =   3.0728122161235660E-01
(PID.TID 0000.0001) %MON advcfl_W_hf_max              =   3.4569137431390118E-01
(PID.TID 0000.0001) %MON pe_b_mean                    =   0.0000000000000000E+00
(PID.TID 0000.0001) %MON ke_max                       =   5.5317846691783989E-01
(PID.TID 0000.0001) %MON ke_mean                      =   3.2352767528803149E-04
(PID.TID 0000.0001) %MON ke_vol                       =   1.3258927395735470E+18
(PID.TID 0000.0001) %MON vort_r_min                   =  -1.2087403672347230E-05
(PID.TID 0000.0001) %MON vort_r_max                   =   1.4241313250549931E-05
(PID.TID 0000.0001) %MON vort_a_mean                  =  -2.1443554633607763E-05
(PID.TID 0000.0001) %MON vort_a_sd                    =   7.3250394380986505E-05
(PID.TID 0000.0001) %MON vort_p_mean                  =  -2.3136237690500922E-05
(PID.TID 0000.0001) %MON vort_p_sd                    =   8.5528113970916863E-05
(PID.TID 0000.0001) %MON surfExpan_theta_mean         =  -8.1455219359452153E-08
(PID.TID 0000.0001) %MON surfExpan_salt_mean          =   7.9128119722139319E-09
(PID.TID 0000.0001) // =======================================================
(PID.TID 0000.0001) // End MONITOR dynamic field statistics
(PID.TID 0000.0001) // =======================================================
(PID.TID 0000.0001) // =======================================================
(PID.TID 0000.0001) // Begin MONITOR ptracer field statistics
(PID.TID 0000.0001) // =======================================================
(PID.TID 0000.0001) %MON trcstat_ptracer01_max        =   2.4045009725478949E+03
(PID.TID 0000.0001) %MON trcstat_ptracer01_min        =   1.8501491304963070E+03
(PID.TID 0000.0001) %MON trcstat_ptracer01_mean       =   2.2546516615956652E+03
(PID.TID 0000.0001) %MON trcstat_ptracer01_sd         =   7.8574572918571803E+01
(PID.TID 0000.0001) %MON trcstat_ptracer01_del2       =   6.8778589522079112E-03
(PID.TID 0000.0001) %MON trcstat_ptracer02_max        =   2.1623736465280925E+00
(PID.TID 0000.0001) %MON trcstat_ptracer02_min        =  -1.7202903315051421E-04
(PID.TID 0000.0001) %MON trcstat_ptracer02_mean       =   1.9088826858124856E-03
(PID.TID 0000.0001) %MON trcstat_ptracer02_sd         =   1.7964061796946908E-02
(PID.TID 0000.0001) %MON trcstat_ptracer02_del2       =   2.8437868423316113E-05
(PID.TID 0000.0001) %MON trcstat_ptracer03_max        =   3.0295458849455352E+00
(PID.TID 0000.0001) %MON trcstat_ptracer03_min        =  -1.0648166923975003E-03
(PID.TID 0000.0001) %MON trcstat_ptracer03_mean       =   5.6884413097311260E-03
(PID.TID 0000.0001) %MON trcstat_ptracer03_sd         =   2.3538830015678393E-02
(PID.TID 0000.0001) %MON trcstat_ptracer03_del2       =   2.8205588034183926E-05
(PID.TID 0000.0001) %MON trcstat_ptracer04_max        =   5.0631745830937042E+01
(PID.TID 0000.0001) %MON trcstat_ptracer04_min        =   3.5870315819138787E-03
(PID.TID 0000.0001) %MON trcstat_ptracer04_mean       =   3.1007572127830997E+01
(PID.TID 0000.0001) %MON trcstat_ptracer04_sd         =   9.0052234879377178E+00
(PID.TID 0000.0001) %MON trcstat_ptracer04_del2       =   6.8721104928916126E-04
(PID.TID 0000.0001) %MON trcstat_ptracer05_max        =   3.7937540933489866E+00
(PID.TID 0000.0001) %MON trcstat_ptracer05_min        =   1.9751192221529410E-02
(PID.TID 0000.0001) %MON trcstat_ptracer05_mean       =   2.1762223300323877E+00
(PID.TID 0000.0001) %MON trcstat_ptracer05_sd         =   6.4447613915155744E-01
(PID.TID 0000.0001) %MON trcstat_ptracer05_del2       =   4.5539233837697109E-05
(PID.TID 0000.0001) %MON trcstat_ptracer06_max        =   2.6054322487165314E+02
(PID.TID 0000.0001) %MON trcstat_ptracer06_min        =   2.9652286106697956E-01
(PID.TID 0000.0001) %MON trcstat_ptracer06_mean       =   9.0810396732775700E+01
(PID.TID 0000.0001) %MON trcstat_ptracer06_sd         =   5.2139261849200658E+01
(PID.TID 0000.0001) %MON trcstat_ptracer06_del2       =   1.4184967615775267E-03
(PID.TID 0000.0001) %MON trcstat_ptracer07_max        =   1.0974132628753447E-03
(PID.TID 0000.0001) %MON trcstat_ptracer07_min        =   1.3608325414904657E-07
(PID.TID 0000.0001) %MON trcstat_ptracer07_mean       =   6.2098480884962388E-04
(PID.TID 0000.0001) %MON trcstat_ptracer07_sd         =   1.7819044946822205E-04
(PID.TID 0000.0001) %MON trcstat_ptracer07_del2       =   6.0793932928804833E-08
(PID.TID 0000.0001) %MON trcstat_ptracer08_max        =   5.1945544330200974E+01
(PID.TID 0000.0001) %MON trcstat_ptracer08_min        =  -5.4044116760972998E-07
(PID.TID 0000.0001) %MON trcstat_ptracer08_mean       =   2.2533036373203916E-01
(PID.TID 0000.0001) %MON trcstat_ptracer08_sd         =   1.3184248539679280E+00
(PID.TID 0000.0001) %MON trcstat_ptracer08_del2       =   1.2483722407424177E-03
(PID.TID 0000.0001) %MON trcstat_ptracer09_max        =   7.2331072740526663E+00
(PID.TID 0000.0001) %MON trcstat_ptracer09_min        =  -1.3681372499561761E-06
(PID.TID 0000.0001) %MON trcstat_ptracer09_mean       =   3.0263794050355636E-02
(PID.TID 0000.0001) %MON trcstat_ptracer09_sd         =   1.7750859062974622E-01
(PID.TID 0000.0001) %MON trcstat_ptracer09_del2       =   1.6859693091576475E-04
(PID.TID 0000.0001) %MON trcstat_ptracer10_max        =   4.3289798920712286E-01
(PID.TID 0000.0001) %MON trcstat_ptracer10_min        =  -8.6880583639905789E-08
(PID.TID 0000.0001) %MON trcstat_ptracer10_mean       =   1.8779491304975492E-03
(PID.TID 0000.0001) %MON trcstat_ptracer10_sd         =   1.0987771204648670E-02
(PID.TID 0000.0001) %MON trcstat_ptracer10_del2       =   1.0403348478724703E-05
(PID.TID 0000.0001) %MON trcstat_ptracer11_max        =   5.0146221342193674E-04
(PID.TID 0000.0001) %MON trcstat_ptracer11_min        =  -2.1966932224789937E-12
(PID.TID 0000.0001) %MON trcstat_ptracer11_mean       =   1.9047015911525920E-06
(PID.TID 0000.0001) %MON trcstat_ptracer11_sd         =   1.1205795355277685E-05
(PID.TID 0000.0001) %MON trcstat_ptracer11_del2       =   1.0709961410326499E-08
(PID.TID 0000.0001) %MON trcstat_ptracer12_max        =   1.3323014467074458E+03
(PID.TID 0000.0001) %MON trcstat_ptracer12_min        =   1.0070982647123382E-04
(PID.TID 0000.0001) %MON trcstat_ptracer12_mean       =   1.6625474183130037E-01
(PID.TID 0000.0001) %MON trcstat_ptracer12_sd         =   2.3046422384629377E+00
(PID.TID 0000.0001) %MON trcstat_ptracer12_del2       =   8.9625341022084835E-04
(PID.TID 0000.0001) %MON trcstat_ptracer13_max        =   1.8814714550891230E+02
(PID.TID 0000.0001) %MON trcstat_ptracer13_min        =   1.3444393193785279E-05
(PID.TID 0000.0001) %MON trcstat_ptracer13_mean       =   2.2507136486524418E-02
(PID.TID 0000.0001) %MON trcstat_ptracer13_sd         =   3.2803146382196680E-01
(PID.TID 0000.0001) %MON trcstat_ptracer13_del2       =   1.2314381979275309E-04
(PID.TID 0000.0001) %MON trcstat_ptracer14_max        =   1.1104311349479449E+01
(PID.TID 0000.0001) %MON trcstat_ptracer14_min        =   8.3992713852924755E-07
(PID.TID 0000.0001) %MON trcstat_ptracer14_mean       =   1.3854792342135648E-03
(PID.TID 0000.0001) %MON trcstat_ptracer14_sd         =   1.9207035126155358E-02
(PID.TID 0000.0001) %MON trcstat_ptracer14_del2       =   7.4687860668396312E-06
(PID.TID 0000.0001) %MON trcstat_ptracer15_max        =   1.2251537113497014E+02
(PID.TID 0000.0001) %MON trcstat_ptracer15_min        =   4.4547188470309906E-07
(PID.TID 0000.0001) %MON trcstat_ptracer15_mean       =   1.3523247974984712E-01
(PID.TID 0000.0001) %MON trcstat_ptracer15_sd         =   3.9841421785407855E-01
(PID.TID 0000.0001) %MON trcstat_ptracer15_del2       =   2.6633869641679112E-04
(PID.TID 0000.0001) %MON trcstat_ptracer16_max        =   1.2414024597240040E-02
(PID.TID 0000.0001) %MON trcstat_ptracer16_min        =   8.4103942272301904E-10
(PID.TID 0000.0001) %MON trcstat_ptracer16_mean       =   1.4279126760601844E-06
(PID.TID 0000.0001) %MON trcstat_ptracer16_sd         =   2.1809149844675978E-05
(PID.TID 0000.0001) %MON trcstat_ptracer16_del2       =   7.9501026446011515E-09
(PID.TID 0000.0001) %MON trcstat_ptracer17_max        =   3.9028395594179386E+02
(PID.TID 0000.0001) %MON trcstat_ptracer17_min        =   3.7600709154560280E-07
(PID.TID 0000.0001) %MON trcstat_ptracer17_mean       =   2.2832468566574654E-01
(PID.TID 0000.0001) %MON trcstat_ptracer17_sd         =   1.0009148908435552E+00
(PID.TID 0000.0001) %MON trcstat_ptracer17_del2       =   1.5348899110653002E-03
(PID.TID 0000.0001) %MON trcstat_ptracer18_max        =   2.4565637733795138E+03
(PID.TID 0000.0001) %MON trcstat_ptracer18_min        =   2.1807597647792963E+03
(PID.TID 0000.0001) %MON trcstat_ptracer18_mean       =   2.3632518415550194E+03
(PID.TID 0000.0001) %MON trcstat_ptracer18_sd         =   4.2538456710047939E+01
(PID.TID 0000.0001) %MON trcstat_ptracer18_del2       =   2.3179317770400422E-03
(PID.TID 0000.0001) %MON trcstat_ptracer19_max        =   4.0074780693225159E+02
(PID.TID 0000.0001) %MON trcstat_ptracer19_min        =   3.1127376346278521E+00
(PID.TID 0000.0001) %MON trcstat_ptracer19_mean       =   1.7468895966440328E+02
(PID.TID 0000.0001) %MON trcstat_ptracer19_sd         =   6.2904882292051646E+01
(PID.TID 0000.0001) %MON trcstat_ptracer19_del2       =   4.7283180874914225E-03
(PID.TID 0000.0001) %MON trcstat_ptracer20_max        =   7.5666561995121540E-01
(PID.TID 0000.0001) %MON trcstat_ptracer20_min        =   2.5972875483583823E-07
(PID.TID 0000.0001) %MON trcstat_ptracer20_mean       =   1.0694159389195096E-03
(PID.TID 0000.0001) %MON trcstat_ptracer20_sd         =   8.8985797358719261E-03
(PID.TID 0000.0001) %MON trcstat_ptracer20_del2       =   1.1493365953001758E-05
(PID.TID 0000.0001) %MON trcstat_ptracer21_max        =   7.6215381766422763E-01
(PID.TID 0000.0001) %MON trcstat_ptracer21_min        =   2.6378654456234757E-07
(PID.TID 0000.0001) %MON trcstat_ptracer21_mean       =   1.0695745585241132E-03
(PID.TID 0000.0001) %MON trcstat_ptracer21_sd         =   8.9037938323751099E-03
(PID.TID 0000.0001) %MON trcstat_ptracer21_del2       =   1.1516835859637987E-05
(PID.TID 0000.0001) %MON trcstat_ptracer22_max        =   7.6678733720191683E-01
(PID.TID 0000.0001) %MON trcstat_ptracer22_min        =   2.6943102833700606E-07
(PID.TID 0000.0001) %MON trcstat_ptracer22_mean       =   1.0697061279452626E-03
(PID.TID 0000.0001) %MON trcstat_ptracer22_sd         =   8.9079890959448647E-03
(PID.TID 0000.0001) %MON trcstat_ptracer22_del2       =   1.1535916094864010E-05
(PID.TID 0000.0001) %MON trcstat_ptracer23_max        =   7.7072878651579513E-01
(PID.TID 0000.0001) %MON trcstat_ptracer23_min        =   2.7729784217274208E-07
(PID.TID 0000.0001) %MON trcstat_ptracer23_mean       =   1.0698152636197122E-03
(PID.TID 0000.0001) %MON trcstat_ptracer23_sd         =   8.9112803540118794E-03
(PID.TID 0000.0001) %MON trcstat_ptracer23_del2       =   1.1551133494485265E-05
(PID.TID 0000.0001) %MON trcstat_ptracer24_max        =   7.7337784206343047E-02
(PID.TID 0000.0001) %MON trcstat_ptracer24_min        =   2.8826466759732682E-08
(PID.TID 0000.0001) %MON trcstat_ptracer24_mean       =   1.0698718375356566E-04
(PID.TID 0000.0001) %MON trcstat_ptracer24_sd         =   8.9126616591304485E-04
(PID.TID 0000.0001) %MON trcstat_ptracer24_del2       =   1.1558423684921545E-06
(PID.TID 0000.0001) %MON trcstat_ptracer25_max        =   7.7337784206343052E-01
(PID.TID 0000.0001) %MON trcstat_ptracer25_min        =   2.8826466759720159E-07
(PID.TID 0000.0001) %MON trcstat_ptracer25_mean       =   1.0698718375356554E-03
(PID.TID 0000.0001) %MON trcstat_ptracer25_sd         =   8.9126616591304365E-03
(PID.TID 0000.0001) %MON trcstat_ptracer25_del2       =   1.1558423684921550E-05
(PID.TID 0000.0001) %MON trcstat_ptracer26_max        =   9.7371622242530431E-01
(PID.TID 0000.0001) %MON trcstat_ptracer26_min        =   3.0548371439038222E-07
(PID.TID 0000.0001) %MON trcstat_ptracer26_mean       =   1.2820097237529876E-03
(PID.TID 0000.0001) %MON trcstat_ptracer26_sd         =   1.0292351298861725E-02
(PID.TID 0000.0001) %MON trcstat_ptracer26_del2       =   1.2943944153754573E-05
(PID.TID 0000.0001) %MON trcstat_ptracer27_max        =   7.7328949681067072E-02
(PID.TID 0000.0001) %MON trcstat_ptracer27_min        =   3.0351969049047078E-08
(PID.TID 0000.0001) %MON trcstat_ptracer27_mean       =   1.0697170516682077E-04
(PID.TID 0000.0001) %MON trcstat_ptracer27_sd         =   8.9076587603439039E-04
(PID.TID 0000.0001) %MON trcstat_ptracer27_del2       =   1.1541902159095366E-06
(PID.TID 0000.0001) %MON trcstat_ptracer28_max        =   7.7328949681067072E-01
(PID.TID 0000.0001) %MON trcstat_ptracer28_min        =   3.0351969049034747E-07
(PID.TID 0000.0001) %MON trcstat_ptracer28_mean       =   1.0697170516682085E-03
(PID.TID 0000.0001) %MON trcstat_ptracer28_sd         =   8.9076587603438961E-03
(PID.TID 0000.0001) %MON trcstat_ptracer28_del2       =   1.1541902159095377E-05
(PID.TID 0000.0001) %MON trcstat_ptracer29_max        =   9.6535408639485276E-01
(PID.TID 0000.0001) %MON trcstat_ptracer29_min        =   3.2697111449159324E-07
(PID.TID 0000.0001) %MON trcstat_ptracer29_mean       =   1.2723897367791621E-03
(PID.TID 0000.0001) %MON trcstat_ptracer29_sd         =   1.0220361510380416E-02
(PID.TID 0000.0001) %MON trcstat_ptracer29_del2       =   1.2861790469913286E-05
(PID.TID 0000.0001) %MON trcstat_ptracer30_max        =   7.7666126321751891E-02
(PID.TID 0000.0001) %MON trcstat_ptracer30_min        =   3.2494851973148440E-08
(PID.TID 0000.0001) %MON trcstat_ptracer30_mean       =   1.0698252526412819E-04
(PID.TID 0000.0001) %MON trcstat_ptracer30_sd         =   8.9098358765185787E-04
(PID.TID 0000.0001) %MON trcstat_ptracer30_del2       =   1.1552175289308242E-06
(PID.TID 0000.0001) %MON trcstat_ptracer31_max        =   7.7666126321751872E-01
(PID.TID 0000.0001) %MON trcstat_ptracer31_min        =   3.2494851973136079E-07
(PID.TID 0000.0001) %MON trcstat_ptracer31_mean       =   1.0698252526412841E-03
(PID.TID 0000.0001) %MON trcstat_ptracer31_sd         =   8.9098358765185622E-03
(PID.TID 0000.0001) %MON trcstat_ptracer31_del2       =   1.1552175289308238E-05
(PID.TID 0000.0001) %MON trcstat_ptracer32_max        =   9.5425574114159162E-01
(PID.TID 0000.0001) %MON trcstat_ptracer32_min        =   3.5693607646439187E-07
(PID.TID 0000.0001) %MON trcstat_ptracer32_mean       =   1.2595960075601790E-03
(PID.TID 0000.0001) %MON trcstat_ptracer32_sd         =   1.0125026812330760E-02
(PID.TID 0000.0001) %MON trcstat_ptracer32_del2       =   1.2762460501905750E-05
(PID.TID 0000.0001) %MON trcstat_ptracer33_max        =   7.7978636080889743E-02
(PID.TID 0000.0001) %MON trcstat_ptracer33_min        =   3.5489608125177457E-08
(PID.TID 0000.0001) %MON trcstat_ptracer33_mean       =   1.0699153345619628E-04
(PID.TID 0000.0001) %MON trcstat_ptracer33_sd         =   8.9109001383896544E-04
(PID.TID 0000.0001) %MON trcstat_ptracer33_del2       =   1.1558236930494412E-06
(PID.TID 0000.0001) %MON trcstat_ptracer34_max        =   7.7978636080889729E-01
(PID.TID 0000.0001) %MON trcstat_ptracer34_min        =   3.5489608125164873E-07
(PID.TID 0000.0001) %MON trcstat_ptracer34_mean       =   1.0699153345619628E-03
(PID.TID 0000.0001) %MON trcstat_ptracer34_sd         =   8.9109001383896515E-03
(PID.TID 0000.0001) %MON trcstat_ptracer34_del2       =   1.1558236930494409E-05
(PID.TID 0000.0001) %MON trcstat_ptracer35_max        =   9.4080382601517398E-01
(PID.TID 0000.0001) %MON trcstat_ptracer35_min        =   3.9887036701633337E-07
(PID.TID 0000.0001) %MON trcstat_ptracer35_mean       =   1.2424279903811726E-03
(PID.TID 0000.0001) %MON trcstat_ptracer35_sd         =   1.0000765828998391E-02
(PID.TID 0000.0001) %MON trcstat_ptracer35_del2       =   1.2637670790659859E-05
(PID.TID 0000.0001) %MON trcstat_ptracer36_max        =   7.8283539801376922E-02
(PID.TID 0000.0001) %MON trcstat_ptracer36_min        =   3.9678460992542349E-08
(PID.TID 0000.0001) %MON trcstat_ptracer36_mean       =   1.0699903361323761E-04
(PID.TID 0000.0001) %MON trcstat_ptracer36_sd         =   8.9107442795253132E-04
(PID.TID 0000.0001) %MON trcstat_ptracer36_del2       =   1.1559857295592476E-06
(PID.TID 0000.0001) %MON trcstat_ptracer37_max        =   7.8283539801376911E-01
(PID.TID 0000.0001) %MON trcstat_ptracer37_min        =   3.9678460992529707E-07
(PID.TID 0000.0001) %MON trcstat_ptracer37_mean       =   1.0699903361323763E-03
(PID.TID 0000.0001) %MON trcstat_ptracer37_sd         =   8.9107442795252935E-03
(PID.TID 0000.0001) %MON trcstat_ptracer37_del2       =   1.1559857295592482E-05
(PID.TID 0000.0001) %MON trcstat_ptracer38_max        =   9.2624369030980713E-01
(PID.TID 0000.0001) %MON trcstat_ptracer38_min        =   4.5761810757578982E-07
(PID.TID 0000.0001) %MON trcstat_ptracer38_mean       =   1.2253410262871192E-03
(PID.TID 0000.0001) %MON trcstat_ptracer38_sd         =   9.8798427725218241E-03
(PID.TID 0000.0001) %MON trcstat_ptracer38_del2       =   1.2513775820971717E-05
(PID.TID 0000.0001) %MON trcstat_ptracer39_max        =   7.8606270728778760E-01
(PID.TID 0000.0001) %MON trcstat_ptracer39_min        =   4.5544939390234466E-07
(PID.TID 0000.0001) %MON trcstat_ptracer39_mean       =   1.0700617283468884E-03
(PID.TID 0000.0001) %MON trcstat_ptracer39_sd         =   8.9094111885659796E-03
(PID.TID 0000.0001) %MON trcstat_ptracer39_del2       =   1.1557298075234049E-05
(PID.TID 0000.0001) %MON trcstat_ptracer40_max        =   9.1187529884287211E-01
(PID.TID 0000.0001) %MON trcstat_ptracer40_min        =   5.4012277307549948E-07
(PID.TID 0000.0001) %MON trcstat_ptracer40_mean       =   1.2093697364583371E-03
(PID.TID 0000.0001) %MON trcstat_ptracer40_sd         =   9.7694616007238926E-03
(PID.TID 0000.0001) %MON trcstat_ptracer40_del2       =   1.2403927114134068E-05
(PID.TID 0000.0001) %MON trcstat_ptracer41_max        =   8.9440201248080453E-01
(PID.TID 0000.0001) %MON trcstat_ptracer41_min        =   6.5632839790590826E-07
(PID.TID 0000.0001) %MON trcstat_ptracer41_mean       =   1.1943694834645976E-03
(PID.TID 0000.0001) %MON trcstat_ptracer41_sd         =   9.6629757992311802E-03
(PID.TID 0000.0001) %MON trcstat_ptracer41_del2       =   1.2283212239458892E-05
(PID.TID 0000.0001) %MON trcstat_ptracer42_max        =   8.7532309387631835E-01
(PID.TID 0000.0001) %MON trcstat_ptracer42_min        =   8.2127004861479140E-07
(PID.TID 0000.0001) %MON trcstat_ptracer42_mean       =   1.1804851899844221E-03
(PID.TID 0000.0001) %MON trcstat_ptracer42_sd         =   9.5627456686104076E-03
(PID.TID 0000.0001) %MON trcstat_ptracer42_del2       =   1.2163141885391701E-05
(PID.TID 0000.0001) %MON trcstat_ptracer43_max        =   8.5414204142946615E-01
(PID.TID 0000.0001) %MON trcstat_ptracer43_min        =   1.0587201753544136E-06
(PID.TID 0000.0001) %MON trcstat_ptracer43_mean       =   1.1677203337981535E-03
(PID.TID 0000.0001) %MON trcstat_ptracer43_sd         =   9.4674194783314278E-03
(PID.TID 0000.0001) %MON trcstat_ptracer43_del2       =   1.2041320756706324E-05
(PID.TID 0000.0001) %MON trcstat_ptracer44_max        =   8.0404785599675621E-01
(PID.TID 0000.0001) %MON trcstat_ptracer44_min        =   2.5997606458704163E-07
(PID.TID 0000.0001) %MON trcstat_ptracer44_mean       =   1.1002605978376611E-03
(PID.TID 0000.0001) %MON trcstat_ptracer44_sd         =   9.1369704584850341E-03
(PID.TID 0000.0001) %MON trcstat_ptracer44_del2       =   1.1868276508513332E-05
(PID.TID 0000.0001) %MON trcstat_ptracer45_max        =   8.0381042101061084E-01
(PID.TID 0000.0001) %MON trcstat_ptracer45_min        =   2.5997397156696036E-07
(PID.TID 0000.0001) %MON trcstat_ptracer45_mean       =   1.1002536318813531E-03
(PID.TID 0000.0001) %MON trcstat_ptracer45_sd         =   9.1367281493757325E-03
(PID.TID 0000.0001) %MON trcstat_ptracer45_del2       =   1.1867187253431661E-05
(PID.TID 0000.0001) %MON trcstat_ptracer46_max        =   8.0361318440665563E-01
(PID.TID 0000.0001) %MON trcstat_ptracer46_min        =   2.5997223899864759E-07
(PID.TID 0000.0001) %MON trcstat_ptracer46_mean       =   1.1002478601351048E-03
(PID.TID 0000.0001) %MON trcstat_ptracer46_sd         =   9.1365273156974944E-03
(PID.TID 0000.0001) %MON trcstat_ptracer46_del2       =   1.1866284024960113E-05
(PID.TID 0000.0001) %MON trcstat_ptracer47_max        =   8.0344941056127173E-01
(PID.TID 0000.0001) %MON trcstat_ptracer47_min        =   2.5997080480496333E-07
(PID.TID 0000.0001) %MON trcstat_ptracer47_mean       =   1.1002430783793528E-03
(PID.TID 0000.0001) %MON trcstat_ptracer47_sd         =   9.1363608816656637E-03
(PID.TID 0000.0001) %MON trcstat_ptracer47_del2       =   1.1865535023315482E-05
(PID.TID 0000.0001) %MON trcstat_ptracer48_max        =   8.0341639713395763E-01
(PID.TID 0000.0001) %MON trcstat_ptracer48_min        =   2.5997068213724433E-07
(PID.TID 0000.0001) %MON trcstat_ptracer48_mean       =   1.1002426714199931E-03
(PID.TID 0000.0001) %MON trcstat_ptracer48_sd         =   9.1363422270156064E-03
(PID.TID 0000.0001) %MON trcstat_ptracer48_del2       =   1.1865432270376623E-05
(PID.TID 0000.0001) %MON trcstat_ptracer49_max        =   8.0419269906074120E-01
(PID.TID 0000.0001) %MON trcstat_ptracer49_min        =   2.5998082386204697E-07
(PID.TID 0000.0001) %MON trcstat_ptracer49_mean       =   1.1002789746859484E-03
(PID.TID 0000.0001) %MON trcstat_ptracer49_sd         =   9.1374742268294194E-03
(PID.TID 0000.0001) %MON trcstat_ptracer49_del2       =   1.1870106180617551E-05
(PID.TID 0000.0001) %MON trcstat_ptracer50_max        =   8.0392640500256707E-01
(PID.TID 0000.0001) %MON trcstat_ptracer50_min        =   2.5997791132107660E-07
(PID.TID 0000.0001) %MON trcstat_ptracer50_mean       =   1.1002687367050606E-03
(PID.TID 0000.0001) %MON trcstat_ptracer50_sd         =   9.1371418052013792E-03
(PID.TID 0000.0001) %MON trcstat_ptracer50_del2       =   1.1868681348197084E-05
(PID.TID 0000.0001) %MON trcstat_ptracer51_max        =   8.0370575613329165E-01
(PID.TID 0000.0001) %MON trcstat_ptracer51_min        =   2.5997550038353563E-07
(PID.TID 0000.0001) %MON trcstat_ptracer51_mean       =   1.1002602288421148E-03
(PID.TID 0000.0001) %MON trcstat_ptracer51_sd         =   9.1368659597243253E-03
(PID.TID 0000.0001) %MON trcstat_ptracer51_del2       =   1.1867499133208880E-05
(PID.TID 0000.0001) %MON trcstat_ptracer52_max        =   8.0352341884428591E-01
(PID.TID 0000.0001) %MON trcstat_ptracer52_min        =   2.5997350463204034E-07
(PID.TID 0000.0001) %MON trcstat_ptracer52_mean       =   1.1002531985570777E-03
(PID.TID 0000.0001) %MON trcstat_ptracer52_sd         =   9.1366379630847348E-03
(PID.TID 0000.0001) %MON trcstat_ptracer52_del2       =   1.1866522629814024E-05
(PID.TID 0000.0001) %MON trcstat_ptracer53_max        =   8.0333334777860588E-01
(PID.TID 0000.0001) %MON trcstat_ptracer53_min        =   2.5997124736805169E-07
(PID.TID 0000.0001) %MON trcstat_ptracer53_mean       =   1.1002453328801494E-03
(PID.TID 0000.0001) %MON trcstat_ptracer53_sd         =   9.1363866035462857E-03
(PID.TID 0000.0001) %MON trcstat_ptracer53_del2       =   1.1865467943552438E-05
(PID.TID 0000.0001) %MON trcstat_ptracer54_max        =   8.0287858900762066E-01
(PID.TID 0000.0001) %MON trcstat_ptracer54_min        =   2.5996574680768699E-07
(PID.TID 0000.0001) %MON trcstat_ptracer54_mean       =   1.1002265333713429E-03
(PID.TID 0000.0001) %MON trcstat_ptracer54_sd         =   9.1357827107751005E-03
(PID.TID 0000.0001) %MON trcstat_ptracer54_del2       =   1.1862943060552016E-05
(PID.TID 0000.0001) %MON trcstat_ptracer55_max        =   8.0283943194081975E-01
(PID.TID 0000.0001) %MON trcstat_ptracer55_min        =   2.5996543067912996E-07
(PID.TID 0000.0001) %MON trcstat_ptracer55_mean       =   1.1002253811119387E-03
(PID.TID 0000.0001) %MON trcstat_ptracer55_sd         =   9.1357430929801479E-03
(PID.TID 0000.0001) %MON trcstat_ptracer55_del2       =   1.1862760580147248E-05
(PID.TID 0000.0001) %MON trcstat_ptracer56_max        =   8.0280716653417838E-01
(PID.TID 0000.0001) %MON trcstat_ptracer56_min        =   2.5996516898968363E-07
(PID.TID 0000.0001) %MON trcstat_ptracer56_mean       =   1.1002244344153526E-03
(PID.TID 0000.0001) %MON trcstat_ptracer56_sd         =   9.1357104901247967E-03
(PID.TID 0000.0001) %MON trcstat_ptracer56_del2       =   1.1862610725490810E-05
(PID.TID 0000.0001) %MON trcstat_ptracer57_max        =   8.0278059217786424E-01
(PID.TID 0000.0001) %MON trcstat_ptracer57_min        =   2.5996495236510209E-07
(PID.TID 0000.0001) %MON trcstat_ptracer57_mean       =   1.1002236561580691E-03
(PID.TID 0000.0001) %MON trcstat_ptracer57_sd         =   9.1356836486000768E-03
(PID.TID 0000.0001) %MON trcstat_ptracer57_del2       =   1.1862487569682047E-05
(PID.TID 0000.0001) %MON trcstat_ptracer58_max        =   2.2820853423661247E-01
(PID.TID 0000.0001) %MON trcstat_ptracer58_min        =   7.8829507812099810E-08
(PID.TID 0000.0001) %MON trcstat_ptracer58_mean       =   3.3370673598126608E-04
(PID.TID 0000.0001) %MON trcstat_ptracer58_sd         =   2.8161837339696987E-03
(PID.TID 0000.0001) %MON trcstat_ptracer58_del2       =   3.6229849379332721E-06
(PID.TID 0000.0001) %MON trcstat_ptracer59_max        =   1.8724009785363827E-01
(PID.TID 0000.0001) %MON trcstat_ptracer59_min        =   6.5645321646997914E-08
(PID.TID 0000.0001) %MON trcstat_ptracer59_mean       =   2.7417565442326963E-04
(PID.TID 0000.0001) %MON trcstat_ptracer59_sd         =   2.3218719851439231E-03
(PID.TID 0000.0001) %MON trcstat_ptracer59_del2       =   2.9884922630943767E-06
(PID.TID 0000.0001) %MON trcstat_ptracer60_max        =   1.5456443767157196E-01
(PID.TID 0000.0001) %MON trcstat_ptracer60_min        =   5.5756524864798148E-08
(PID.TID 0000.0001) %MON trcstat_ptracer60_mean       =   2.2646878773939632E-04
(PID.TID 0000.0001) %MON trcstat_ptracer60_sd         =   1.9184220638697020E-03
(PID.TID 0000.0001) %MON trcstat_ptracer60_del2       =   2.4730565755758073E-06
(PID.TID 0000.0001) %MON trcstat_ptracer61_max        =   1.3044300321044794E-01
(PID.TID 0000.0001) %MON trcstat_ptracer61_min        =   4.8963240466594131E-08
(PID.TID 0000.0001) %MON trcstat_ptracer61_mean       =   1.9125509346971101E-04
(PID.TID 0000.0001) %MON trcstat_ptracer61_sd         =   1.6158355212359382E-03
(PID.TID 0000.0001) %MON trcstat_ptracer61_del2       =   2.0873237470853345E-06
(PID.TID 0000.0001) %MON trcstat_ptracer62_max        =   2.5779261402114340E-02
(PID.TID 0000.0001) %MON trcstat_ptracer62_min        =   9.6088222532441401E-09
(PID.TID 0000.0001) %MON trcstat_ptracer62_mean       =   3.5662394584521827E-05
(PID.TID 0000.0001) %MON trcstat_ptracer62_sd         =   2.9708872197101486E-04
(PID.TID 0000.0001) %MON trcstat_ptracer62_del2       =   3.8528078949738455E-07
(PID.TID 0000.0001) %MON trcstat_ptracer63_max        =   1.1485562485403780E-01
(PID.TID 0000.0001) %MON trcstat_ptracer63_min        =   4.4868565447133552E-08
(PID.TID 0000.0001) %MON trcstat_ptracer63_mean       =   1.6706511653892227E-04
(PID.TID 0000.0001) %MON trcstat_ptracer63_sd         =   1.4049780513356366E-03
(PID.TID 0000.0001) %MON trcstat_ptracer63_del2       =   1.8183877518278847E-06
(PID.TID 0000.0001) %MON trcstat_ptracer64_max        =   1.0833889473814884E-01
(PID.TID 0000.0001) %MON trcstat_ptracer64_min        =   4.3100618150101809E-08
(PID.TID 0000.0001) %MON trcstat_ptracer64_mean       =   1.5510765440179838E-04
(PID.TID 0000.0001) %MON trcstat_ptracer64_sd         =   1.2905439534813261E-03
(PID.TID 0000.0001) %MON trcstat_ptracer64_del2       =   1.6626106677918009E-06
(PID.TID 0000.0001) %MON trcstat_ptracer65_max        =   2.5776316560355686E-02
(PID.TID 0000.0001) %MON trcstat_ptracer65_min        =   1.0117323016349045E-08
(PID.TID 0000.0001) %MON trcstat_ptracer65_mean       =   3.5657235055606890E-05
(PID.TID 0000.0001) %MON trcstat_ptracer65_sd         =   2.9692195867813000E-04
(PID.TID 0000.0001) %MON trcstat_ptracer65_del2       =   3.8473007196984555E-07
(PID.TID 0000.0001) %MON trcstat_ptracer66_max        =   1.0702039057364708E-01
(PID.TID 0000.0001) %MON trcstat_ptracer66_min        =   4.3014521348992306E-08
(PID.TID 0000.0001) %MON trcstat_ptracer66_mean       =   1.5149725583106464E-04
(PID.TID 0000.0001) %MON trcstat_ptracer66_sd         =   1.2669748797989881E-03
(PID.TID 0000.0001) %MON trcstat_ptracer66_del2       =   1.6404255943486342E-06
(PID.TID 0000.0001) %MON trcstat_ptracer67_max        =   1.0422574626018649E-01
(PID.TID 0000.0001) %MON trcstat_ptracer67_min        =   4.3325749292818062E-08
(PID.TID 0000.0001) %MON trcstat_ptracer67_mean       =   1.4470022261012605E-04
(PID.TID 0000.0001) %MON trcstat_ptracer67_sd         =   1.2013330114231916E-03
(PID.TID 0000.0001) %MON trcstat_ptracer67_del2       =   1.5525396731930648E-06
(PID.TID 0000.0001) %MON trcstat_ptracer68_max        =   2.5888708773917284E-02
(PID.TID 0000.0001) %MON trcstat_ptracer68_min        =   1.0831617324382849E-08
(PID.TID 0000.0001) %MON trcstat_ptracer68_mean       =   3.5660841754709522E-05
(PID.TID 0000.0001) %MON trcstat_ptracer68_sd         =   2.9699452921728585E-04
(PID.TID 0000.0001) %MON trcstat_ptracer68_del2       =   3.8507250964360860E-07
(PID.TID 0000.0001) %MON trcstat_ptracer69_max        =   1.0355483509566914E-01
(PID.TID 0000.0001) %MON trcstat_ptracer69_min        =   4.3326469297514619E-08
(PID.TID 0000.0001) %MON trcstat_ptracer69_mean       =   1.4264336701883806E-04
(PID.TID 0000.0001) %MON trcstat_ptracer69_sd         =   1.1879781168691434E-03
(PID.TID 0000.0001) %MON trcstat_ptracer69_del2       =   1.5402900385744344E-06
(PID.TID 0000.0001) %MON trcstat_ptracer70_max        =   1.0397151477451966E-01
(PID.TID 0000.0001) %MON trcstat_ptracer70_min        =   4.7319477500220024E-08
(PID.TID 0000.0001) %MON trcstat_ptracer70_mean       =   1.4288384324970445E-04
(PID.TID 0000.0001) %MON trcstat_ptracer70_sd         =   1.1892979190941937E-03
(PID.TID 0000.0001) %MON trcstat_ptracer70_del2       =   1.5420380903651321E-06
(PID.TID 0000.0001) %MON trcstat_ptracer71_max        =   2.5992878693629914E-02
(PID.TID 0000.0001) %MON trcstat_ptracer71_min        =   1.1829869375059205E-08
(PID.TID 0000.0001) %MON trcstat_ptracer71_mean       =   3.5663844485398718E-05
(PID.TID 0000.0001) %MON trcstat_ptracer71_sd         =   2.9703000461298810E-04
(PID.TID 0000.0001) %MON trcstat_ptracer71_del2       =   3.8527456434981306E-07
(PID.TID 0000.0001) %MON trcstat_ptracer72_max        =   1.0397151477451966E-01
(PID.TID 0000.0001) %MON trcstat_ptracer72_min        =   4.7319477500220037E-08
(PID.TID 0000.0001) %MON trcstat_ptracer72_mean       =   1.4265537794159484E-04
(PID.TID 0000.0001) %MON trcstat_ptracer72_sd         =   1.1881200184519524E-03
(PID.TID 0000.0001) %MON trcstat_ptracer72_del2       =   1.5410982573992522E-06
(PID.TID 0000.0001) %MON trcstat_ptracer73_max        =   1.0437805306850255E-01
(PID.TID 0000.0001) %MON trcstat_ptracer73_min        =   5.2904614656706403E-08
(PID.TID 0000.0001) %MON trcstat_ptracer73_mean       =   1.4267073644483110E-04
(PID.TID 0000.0001) %MON trcstat_ptracer73_sd         =   1.1881169809517993E-03
(PID.TID 0000.0001) %MON trcstat_ptracer73_del2       =   1.5413071962322778E-06
(PID.TID 0000.0001) %MON trcstat_ptracer74_max        =   2.6094513267125637E-02
(PID.TID 0000.0001) %MON trcstat_ptracer74_min        =   1.3226153664180750E-08
(PID.TID 0000.0001) %MON trcstat_ptracer74_mean       =   3.5666344537745895E-05
(PID.TID 0000.0001) %MON trcstat_ptracer74_sd         =   2.9702480931751037E-04
(PID.TID 0000.0001) %MON trcstat_ptracer74_del2       =   3.8532857651974979E-07
(PID.TID 0000.0001) %MON trcstat_ptracer75_max        =   1.0437805306850255E-01
(PID.TID 0000.0001) %MON trcstat_ptracer75_min        =   5.2904614656706410E-08
(PID.TID 0000.0001) %MON trcstat_ptracer75_mean       =   1.4266537815098358E-04
(PID.TID 0000.0001) %MON trcstat_ptracer75_sd         =   1.1880992372700415E-03
(PID.TID 0000.0001) %MON trcstat_ptracer75_del2       =   1.5413143060789991E-06
(PID.TID 0000.0001) %MON trcstat_ptracer76_max        =   1.0480836097170498E-01
(PID.TID 0000.0001) %MON trcstat_ptracer76_min        =   6.0726585853645775E-08
(PID.TID 0000.0001) %MON trcstat_ptracer76_mean       =   1.4267489711291821E-04
(PID.TID 0000.0001) %MON trcstat_ptracer76_sd         =   1.1879214918087974E-03
(PID.TID 0000.0001) %MON trcstat_ptracer76_del2       =   1.5409730766978744E-06
(PID.TID 0000.0001) %MON trcstat_ptracer77_max        =   1.0480836097170498E-01
(PID.TID 0000.0001) %MON trcstat_ptracer77_min        =   6.0726585853645788E-08
(PID.TID 0000.0001) %MON trcstat_ptracer77_mean       =   1.4267489711291821E-04
(PID.TID 0000.0001) %MON trcstat_ptracer77_sd         =   1.1879214918087974E-03
(PID.TID 0000.0001) %MON trcstat_ptracer77_del2       =   1.5409730766978744E-06
(PID.TID 0000.0001) %MON trcstat_ptracer78_max        =   1.0545776437943716E-01
(PID.TID 0000.0001) %MON trcstat_ptracer78_min        =   7.1709814174472269E-08
(PID.TID 0000.0001) %MON trcstat_ptracer78_mean       =   1.4269382090206372E-04
(PID.TID 0000.0001) %MON trcstat_ptracer78_sd         =   1.1878379685019850E-03
(PID.TID 0000.0001) %MON trcstat_ptracer78_del2       =   1.5410975159949020E-06
(PID.TID 0000.0001) %MON trcstat_ptracer79_max        =   1.0598188171137515E-01
(PID.TID 0000.0001) %MON trcstat_ptracer79_min        =   8.7178575766926338E-08
(PID.TID 0000.0001) %MON trcstat_ptracer79_mean       =   1.4269754217555177E-04
(PID.TID 0000.0001) %MON trcstat_ptracer79_sd         =   1.1870438389416623E-03
(PID.TID 0000.0001) %MON trcstat_ptracer79_del2       =   1.5386855141491728E-06
(PID.TID 0000.0001) %MON trcstat_ptracer80_max        =   1.0664917143958769E-01
(PID.TID 0000.0001) %MON trcstat_ptracer80_min        =   1.0913571852280024E-07
(PID.TID 0000.0001) %MON trcstat_ptracer80_mean       =   1.4270083342728148E-04
(PID.TID 0000.0001) %MON trcstat_ptracer80_sd         =   1.1858872415528724E-03
(PID.TID 0000.0001) %MON trcstat_ptracer80_del2       =   1.5351557199089861E-06
(PID.TID 0000.0001) %MON trcstat_ptracer81_max        =   1.0752665877147963E-01
(PID.TID 0000.0001) %MON trcstat_ptracer81_min        =   1.4074881136583667E-07
(PID.TID 0000.0001) %MON trcstat_ptracer81_mean       =   1.4270385692598586E-04
(PID.TID 0000.0001) %MON trcstat_ptracer81_sd         =   1.1842544054983016E-03
(PID.TID 0000.0001) %MON trcstat_ptracer81_del2       =   1.5302494830776545E-06
(PID.TID 0000.0001) %MON trcstat_ptracer82_max        =   1.0901606276123348E-01
(PID.TID 0000.0001) %MON trcstat_ptracer82_min        =   3.4673508743281197E-08
(PID.TID 0000.0001) %MON trcstat_ptracer82_mean       =   1.4676085748758708E-04
(PID.TID 0000.0001) %MON trcstat_ptracer82_sd         =   1.2203270669351833E-03
(PID.TID 0000.0001) %MON trcstat_ptracer82_del2       =   1.5915883533297310E-06
(PID.TID 0000.0001) %MON trcstat_ptracer83_max        =   1.0815440127268031E-01
(PID.TID 0000.0001) %MON trcstat_ptracer83_min        =   3.4669452358774870E-08
(PID.TID 0000.0001) %MON trcstat_ptracer83_mean       =   1.4673194396956147E-04
(PID.TID 0000.0001) %MON trcstat_ptracer83_sd         =   1.2193229114983481E-03
(PID.TID 0000.0001) %MON trcstat_ptracer83_del2       =   1.5871457016973456E-06
(PID.TID 0000.0001) %MON trcstat_ptracer84_max        =   1.0761224339114049E-01
(PID.TID 0000.0001) %MON trcstat_ptracer84_min        =   3.4666244918719098E-08
(PID.TID 0000.0001) %MON trcstat_ptracer84_mean       =   1.4671428660726517E-04
(PID.TID 0000.0001) %MON trcstat_ptracer84_sd         =   1.2187099517865880E-03
(PID.TID 0000.0001) %MON trcstat_ptracer84_del2       =   1.5844277639691406E-06
(PID.TID 0000.0001) %MON trcstat_ptracer85_max        =   1.0725501063541291E-01
(PID.TID 0000.0001) %MON trcstat_ptracer85_min        =   3.4663721378527548E-08
(PID.TID 0000.0001) %MON trcstat_ptracer85_mean       =   1.4670308697685043E-04
(PID.TID 0000.0001) %MON trcstat_ptracer85_sd         =   1.2183207981453911E-03
(PID.TID 0000.0001) %MON trcstat_ptracer85_del2       =   1.5826932352675612E-06
(PID.TID 0000.0001) %MON trcstat_ptracer86_max        =   1.0701995983793315E-01
(PID.TID 0000.0001) %MON trcstat_ptracer86_min        =   3.4661854795095484E-08
(PID.TID 0000.0001) %MON trcstat_ptracer86_mean       =   1.4669599886952720E-04
(PID.TID 0000.0001) %MON trcstat_ptracer86_sd         =   1.2180741428678755E-03
(PID.TID 0000.0001) %MON trcstat_ptracer86_del2       =   1.5815874801217723E-06
(PID.TID 0000.0001) %MON trcstat_ptracer87_max        =   1.0701926972885897E-01
(PID.TID 0000.0001) %MON trcstat_ptracer87_min        =   3.4661854801644670E-08
(PID.TID 0000.0001) %MON trcstat_ptracer87_mean       =   1.4669598882174149E-04
(PID.TID 0000.0001) %MON trcstat_ptracer87_sd         =   1.2180737114718693E-03
(PID.TID 0000.0001) %MON trcstat_ptracer87_del2       =   1.5815850074923019E-06
(PID.TID 0000.0001) %MON trcstat_ptracer88_max        =   1.0701951129625355E-01
(PID.TID 0000.0001) %MON trcstat_ptracer88_min        =   3.4661854799735530E-08
(PID.TID 0000.0001) %MON trcstat_ptracer88_mean       =   1.4669599180558540E-04
(PID.TID 0000.0001) %MON trcstat_ptracer88_sd         =   1.2180738428304823E-03
(PID.TID 0000.0001) %MON trcstat_ptracer88_del2       =   1.5815857766048659E-06
(PID.TID 0000.0001) %MON trcstat_ptracer89_max        =   1.0701971137966841E-01
(PID.TID 0000.0001) %MON trcstat_ptracer89_min        =   3.4661854798154987E-08
(PID.TID 0000.0001) %MON trcstat_ptracer89_mean       =   1.4669599427926647E-04
(PID.TID 0000.0001) %MON trcstat_ptracer89_sd         =   1.2180739516998416E-03
(PID.TID 0000.0001) %MON trcstat_ptracer89_del2       =   1.5815864142417122E-06
(PID.TID 0000.0001) %MON trcstat_ptracer90_max        =   1.0701987691294206E-01
(PID.TID 0000.0001) %MON trcstat_ptracer90_min        =   3.4661854796847346E-08
(PID.TID 0000.0001) %MON trcstat_ptracer90_mean       =   1.4669599632452062E-04
(PID.TID 0000.0001) %MON trcstat_ptracer90_sd         =   1.2180740417271345E-03
(PID.TID 0000.0001) %MON trcstat_ptracer90_del2       =   1.5815869411204614E-06
(PID.TID 0000.0001) %MON trcstat_ptracer91_max        =   1.0702004995026383E-01
(PID.TID 0000.0001) %MON trcstat_ptracer91_min        =   3.4661854795378982E-08
(PID.TID 0000.0001) %MON trcstat_ptracer91_mean       =   1.4669599858958403E-04
(PID.TID 0000.0001) %MON trcstat_ptracer91_sd         =   1.2180741404471615E-03
(PID.TID 0000.0001) %MON trcstat_ptracer91_del2       =   1.5815875121418891E-06
(PID.TID 0000.0001) %MON trcstat_ptracer92_max        =   1.0702046832107566E-01
(PID.TID 0000.0001) %MON trcstat_ptracer92_min        =   3.4661854791791969E-08
(PID.TID 0000.0001) %MON trcstat_ptracer92_mean       =   1.4669600408028681E-04
(PID.TID 0000.0001) %MON trcstat_ptracer92_sd         =   1.2180743800922747E-03
(PID.TID 0000.0001) %MON trcstat_ptracer92_del2       =   1.5815888950753930E-06
(PID.TID 0000.0001) %MON trcstat_ptracer93_max        =   1.0702050326566978E-01
(PID.TID 0000.0001) %MON trcstat_ptracer93_min        =   3.4661854791579748E-08
(PID.TID 0000.0001) %MON trcstat_ptracer93_mean       =   1.4669600443065339E-04
(PID.TID 0000.0001) %MON trcstat_ptracer93_sd         =   1.2180743960775527E-03
(PID.TID 0000.0001) %MON trcstat_ptracer93_del2       =   1.5815889924650551E-06
(PID.TID 0000.0001) %MON trcstat_ptracer94_max        =   1.0702053214616936E-01
(PID.TID 0000.0001) %MON trcstat_ptracer94_min        =   3.4661854791404114E-08
(PID.TID 0000.0001) %MON trcstat_ptracer94_mean       =   1.4669600471991565E-04
(PID.TID 0000.0001) %MON trcstat_ptracer94_sd         =   1.2180744092785967E-03
(PID.TID 0000.0001) %MON trcstat_ptracer94_del2       =   1.5815890727644044E-06
(PID.TID 0000.0001) %MON trcstat_ptracer95_max        =   1.0702055601193750E-01
(PID.TID 0000.0001) %MON trcstat_ptracer95_min        =   3.4661854791258544E-08
(PID.TID 0000.0001) %MON trcstat_ptracer95_mean       =   1.4669600495877800E-04
(PID.TID 0000.0001) %MON trcstat_ptracer95_sd         =   1.2180744201822173E-03
(PID.TID 0000.0001) %MON trcstat_ptracer95_del2       =   1.5815891389990817E-06
(PID.TID 0000.0001) %MON trcstat_ptracer96_max        =   8.7899055698766049E-03
(PID.TID 0000.0001) %MON trcstat_ptracer96_min        =   3.0904344530773102E-09
(PID.TID 0000.0001) %MON trcstat_ptracer96_mean       =   1.2689946318080831E-05
(PID.TID 0000.0001) %MON trcstat_ptracer96_sd         =   1.0570863061547027E-04
(PID.TID 0000.0001) %MON trcstat_ptracer96_del2       =   1.3641976535987830E-07
(PID.TID 0000.0001) %MON trcstat_ptracer97_max        =   8.0892805192349475E-03
(PID.TID 0000.0001) %MON trcstat_ptracer97_min        =   2.8737827947013251E-09
(PID.TID 0000.0001) %MON trcstat_ptracer97_mean       =   1.1628189517971775E-05
(PID.TID 0000.0001) %MON trcstat_ptracer97_sd         =   9.6907918430391241E-05
(PID.TID 0000.0001) %MON trcstat_ptracer97_del2       =   1.2518367279157814E-07
(PID.TID 0000.0001) %MON trcstat_ptracer98_max        =   7.6673683172972431E-03
(PID.TID 0000.0001) %MON trcstat_ptracer98_min        =   2.7388078183170834E-09
(PID.TID 0000.0001) %MON trcstat_ptracer98_mean       =   1.0871367536331378E-05
(PID.TID 0000.0001) %MON trcstat_ptracer98_sd         =   9.0593520227975544E-05
(PID.TID 0000.0001) %MON trcstat_ptracer98_del2       =   1.1709532895528993E-07
(PID.TID 0000.0001) %MON trcstat_ptracer99_max        =   7.6383795625772632E-03
(PID.TID 0000.0001) %MON trcstat_ptracer99_min        =   2.7685090487690718E-09
(PID.TID 0000.0001) %MON trcstat_ptracer99_mean       =   1.0672768189851325E-05
(PID.TID 0000.0001) %MON trcstat_ptracer99_sd         =   8.8924270713495299E-05
(PID.TID 0000.0001) %MON trcstat_ptracer99_del2       =   1.1523417298955764E-07
(PID.TID 0000.0001) %MON trcstat_ptracer0a_max        =   7.4702139782851075E-04
(PID.TID 0000.0001) %MON trcstat_ptracer0a_min        =   2.8407872285328451E-10
(PID.TID 0000.0001) %MON trcstat_ptracer0a_mean       =   1.0528799691319364E-06
(PID.TID 0000.0001) %MON trcstat_ptracer0a_sd         =   8.7772679120373129E-06
(PID.TID 0000.0001) %MON trcstat_ptracer0a_del2       =   1.1369257317233440E-08
(PID.TID 0000.0001) %MON trcstat_ptracer0b_max        =   7.4702139782851082E-03
(PID.TID 0000.0001) %MON trcstat_ptracer0b_min        =   2.8407872285316410E-09
(PID.TID 0000.0001) %MON trcstat_ptracer0b_mean       =   1.0528799691319368E-05
(PID.TID 0000.0001) %MON trcstat_ptracer0b_sd         =   8.7772679120373082E-05
(PID.TID 0000.0001) %MON trcstat_ptracer0b_del2       =   1.1369257317233440E-07
(PID.TID 0000.0001) %MON trcstat_ptracer0c_max        =   7.5184043912024752E-03
(PID.TID 0000.0001) %MON trcstat_ptracer0c_min        =   2.9333206426674791E-09
(PID.TID 0000.0001) %MON trcstat_ptracer0c_mean       =   1.0967517899475176E-05
(PID.TID 0000.0001) %MON trcstat_ptracer0c_sd         =   8.9916008638518026E-05
(PID.TID 0000.0001) %MON trcstat_ptracer0c_del2       =   1.1484385359303265E-07
(PID.TID 0000.0001) %MON trcstat_ptracer0d_max        =   7.2217688908624423E-04
(PID.TID 0000.0001) %MON trcstat_ptracer0d_min        =   2.9209074795698967E-10
(PID.TID 0000.0001) %MON trcstat_ptracer0d_mean       =   1.0279398151993872E-06
(PID.TID 0000.0001) %MON trcstat_ptracer0d_sd         =   8.5692430858829391E-06
(PID.TID 0000.0001) %MON trcstat_ptracer0d_del2       =   1.1079666957962725E-08
(PID.TID 0000.0001) %MON trcstat_ptracer0e_max        =   7.2217688908624419E-03
(PID.TID 0000.0001) %MON trcstat_ptracer0e_min        =   2.9209074795687150E-09
(PID.TID 0000.0001) %MON trcstat_ptracer0e_mean       =   1.0279398151993882E-05
(PID.TID 0000.0001) %MON trcstat_ptracer0e_sd         =   8.5692430858829279E-05
(PID.TID 0000.0001) %MON trcstat_ptracer0e_del2       =   1.1079666957962732E-07
(PID.TID 0000.0001) %MON trcstat_ptracer0f_max        =   7.1828680507007138E-03
(PID.TID 0000.0001) %MON trcstat_ptracer0f_min        =   3.0502375008577322E-09
(PID.TID 0000.0001) %MON trcstat_ptracer0f_mean       =   1.0473482032555189E-05
(PID.TID 0000.0001) %MON trcstat_ptracer0f_sd         =   8.6279494861805713E-05
(PID.TID 0000.0001) %MON trcstat_ptracer0f_del2       =   1.1047667771432382E-07
(PID.TID 0000.0001) %MON trcstat_ptracer0g_max        =   7.0181966814010142E-04
(PID.TID 0000.0001) %MON trcstat_ptracer0g_min        =   3.0406800635716544E-10
(PID.TID 0000.0001) %MON trcstat_ptracer0g_mean       =   9.9990435696642634E-07
(PID.TID 0000.0001) %MON trcstat_ptracer0g_sd         =   8.3385576816298971E-06
(PID.TID 0000.0001) %MON trcstat_ptracer0g_del2       =   1.0779923504198671E-08
(PID.TID 0000.0001) %MON trcstat_ptracer0h_max        =   7.0181966814010137E-03
(PID.TID 0000.0001) %MON trcstat_ptracer0h_min        =   3.0406800635705294E-09
(PID.TID 0000.0001) %MON trcstat_ptracer0h_mean       =   9.9990435696642596E-06
(PID.TID 0000.0001) %MON trcstat_ptracer0h_sd         =   8.3385576816298964E-05
(PID.TID 0000.0001) %MON trcstat_ptracer0h_del2       =   1.0779923504198679E-07
(PID.TID 0000.0001) %MON trcstat_ptracer0i_max        =   6.9531351159834495E-03
(PID.TID 0000.0001) %MON trcstat_ptracer0i_min        =   3.2381072213955523E-09
(PID.TID 0000.0001) %MON trcstat_ptracer0i_mean       =   1.0041302488415939E-05
(PID.TID 0000.0001) %MON trcstat_ptracer0i_sd         =   8.3052308488750689E-05
(PID.TID 0000.0001) %MON trcstat_ptracer0i_del2       =   1.0663383008812169E-07
(PID.TID 0000.0001) %MON trcstat_ptracer0j_max        =   6.8580308427460533E-04
(PID.TID 0000.0001) %MON trcstat_ptracer0j_min        =   3.2311589013727425E-10
(PID.TID 0000.0001) %MON trcstat_ptracer0j_mean       =   9.7355322387083894E-07
(PID.TID 0000.0001) %MON trcstat_ptracer0j_sd         =   8.1194395214830377E-06
(PID.TID 0000.0001) %MON trcstat_ptracer0j_del2       =   1.0496313525879321E-08
(PID.TID 0000.0001) %MON trcstat_ptracer0k_max        =   6.8580308427460537E-03
(PID.TID 0000.0001) %MON trcstat_ptracer0k_min        =   3.2311589013716420E-09
(PID.TID 0000.0001) %MON trcstat_ptracer0k_mean       =   9.7355322387083750E-06
(PID.TID 0000.0001) %MON trcstat_ptracer0k_sd         =   8.1194395214830354E-05
(PID.TID 0000.0001) %MON trcstat_ptracer0k_del2       =   1.0496313525879323E-07
(PID.TID 0000.0001) %MON trcstat_ptracer0l_max        =   6.8028285157673840E-03
(PID.TID 0000.0001) %MON trcstat_ptracer0l_min        =   3.5318942956266510E-09
(PID.TID 0000.0001) %MON trcstat_ptracer0l_mean       =   9.7023539767849729E-06
(PID.TID 0000.0001) %MON trcstat_ptracer0l_sd         =   8.0476043076083885E-05
(PID.TID 0000.0001) %MON trcstat_ptracer0l_del2       =   1.0356070386835421E-07
(PID.TID 0000.0001) %MON trcstat_ptracer0m_max        =   6.7491648587169998E-04
(PID.TID 0000.0001) %MON trcstat_ptracer0m_min        =   3.5269317007799073E-10
(PID.TID 0000.0001) %MON trcstat_ptracer0m_mean       =   9.5129961019576209E-07
(PID.TID 0000.0001) %MON trcstat_ptracer0m_sd         =   7.9323590597546067E-06
(PID.TID 0000.0001) %MON trcstat_ptracer0m_del2       =   1.0255360013231203E-08
(PID.TID 0000.0001) %MON trcstat_ptracer0n_max        =   6.7491648587169996E-03
(PID.TID 0000.0001) %MON trcstat_ptracer0n_min        =   3.5269317007788109E-09
(PID.TID 0000.0001) %MON trcstat_ptracer0n_mean       =   9.5129961019576126E-06
(PID.TID 0000.0001) %MON trcstat_ptracer0n_sd         =   7.9323590597546115E-05
(PID.TID 0000.0001) %MON trcstat_ptracer0n_del2       =   1.0255360013231224E-07
(PID.TID 0000.0001) %MON trcstat_ptracer0o_max        =   6.7156353004148243E-03
(PID.TID 0000.0001) %MON trcstat_ptracer0o_min        =   3.9741738151112280E-09
(PID.TID 0000.0001) %MON trcstat_ptracer0o_mean       =   9.4519329938046049E-06
(PID.TID 0000.0001) %MON trcstat_ptracer0o_sd         =   7.8528835700525550E-05
(PID.TID 0000.0001) %MON trcstat_ptracer0o_del2       =   1.0123126264188750E-07
(PID.TID 0000.0001) %MON trcstat_ptracer0p_max        =   6.6864262900859645E-03
(PID.TID 0000.0001) %MON trcstat_ptracer0p_min        =   3.9706724868912398E-09
(PID.TID 0000.0001) %MON trcstat_ptracer0p_mean       =   9.3376354694646713E-06
(PID.TID 0000.0001) %MON trcstat_ptracer0p_sd         =   7.7829822357750015E-05
(PID.TID 0000.0001) %MON trcstat_ptracer0p_del2       =   1.0063855657870171E-07
(PID.TID 0000.0001) %MON trcstat_ptracer0q_max        =   6.6860160518117514E-03
(PID.TID 0000.0001) %MON trcstat_ptracer0q_min        =   4.6233077236109093E-09
(PID.TID 0000.0001) %MON trcstat_ptracer0q_mean       =   9.2740075794758361E-06
(PID.TID 0000.0001) %MON trcstat_ptracer0q_sd         =   7.7119751411564946E-05
(PID.TID 0000.0001) %MON trcstat_ptracer0q_del2       =   9.9582523283562347E-08
(PID.TID 0000.0001) %MON trcstat_ptracer0r_max        =   6.6771256914491470E-03
(PID.TID 0000.0001) %MON trcstat_ptracer0r_min        =   5.5603953415388201E-09
(PID.TID 0000.0001) %MON trcstat_ptracer0r_mean       =   9.1500555610616724E-06
(PID.TID 0000.0001) %MON trcstat_ptracer0r_sd         =   7.6081850987929462E-05
(PID.TID 0000.0001) %MON trcstat_ptracer0r_del2       =   9.8279641504954468E-08
(PID.TID 0000.0001) %MON trcstat_ptracer0s_max        =   6.6949558025647888E-03
(PID.TID 0000.0001) %MON trcstat_ptracer0s_min        =   6.9091905981522113E-09
(PID.TID 0000.0001) %MON trcstat_ptracer0s_mean       =   9.0663189792631243E-06
(PID.TID 0000.0001) %MON trcstat_ptracer0s_sd         =   7.5332605733513427E-05
(PID.TID 0000.0001) %MON trcstat_ptracer0s_del2       =   9.7282028413320254E-08
(PID.TID 0000.0001) %MON trcstat_ptracer0t_max        =   6.7364313876640677E-03
(PID.TID 0000.0001) %MON trcstat_ptracer0t_min        =   8.8663441902518257E-09
(PID.TID 0000.0001) %MON trcstat_ptracer0t_mean       =   9.0110799441756680E-06
(PID.TID 0000.0001) %MON trcstat_ptracer0t_sd         =   7.4778470041196728E-05
(PID.TID 0000.0001) %MON trcstat_ptracer0t_del2       =   9.6465278137103704E-08
(PID.TID 0000.0001) %MON trcstat_ptracer0u_max        =   6.7233683440331826E-03
(PID.TID 0000.0001) %MON trcstat_ptracer0u_min        =   2.1666078201023384E-09
(PID.TID 0000.0001) %MON trcstat_ptracer0u_mean       =   9.1695290693273989E-06
(PID.TID 0000.0001) %MON trcstat_ptracer0u_sd         =   7.6165455281630416E-05
(PID.TID 0000.0001) %MON trcstat_ptracer0u_del2       =   9.9010750570051644E-08
(PID.TID 0000.0001) %MON trcstat_ptracer0v_max        =   6.7157704813399863E-03
(PID.TID 0000.0001) %MON trcstat_ptracer0v_min        =   2.1665662796118512E-09
(PID.TID 0000.0001) %MON trcstat_ptracer0v_mean       =   9.1693008053783847E-06
(PID.TID 0000.0001) %MON trcstat_ptracer0v_sd         =   7.6157514489958811E-05
(PID.TID 0000.0001) %MON trcstat_ptracer0v_del2       =   9.8974952536291614E-08
(PID.TID 0000.0001) %MON trcstat_ptracer0w_max        =   6.7102183984293637E-03
(PID.TID 0000.0001) %MON trcstat_ptracer0w_min        =   2.1665318463170806E-09
(PID.TID 0000.0001) %MON trcstat_ptracer0w_mean       =   9.1691325373916602E-06
(PID.TID 0000.0001) %MON trcstat_ptracer0w_sd         =   7.6151660375827396E-05
(PID.TID 0000.0001) %MON trcstat_ptracer0w_del2       =   9.8948533098125731E-08
(PID.TID 0000.0001) %MON trcstat_ptracer0x_max        =   6.7061284717019809E-03
(PID.TID 0000.0001) %MON trcstat_ptracer0x_min        =   2.1665033147999525E-09
(PID.TID 0000.0001) %MON trcstat_ptracer0x_mean       =   9.1690103230658001E-06
(PID.TID 0000.0001) %MON trcstat_ptracer0x_sd         =   7.6147412492619029E-05
(PID.TID 0000.0001) %MON trcstat_ptracer0x_del2       =   9.8929409422624786E-08
(PID.TID 0000.0001) %MON trcstat_ptracer0y_max        =   6.7049853489818539E-03
(PID.TID 0000.0001) %MON trcstat_ptracer0y_min        =   2.1665009009725533E-09
(PID.TID 0000.0001) %MON trcstat_ptracer0y_mean       =   9.1689899192590144E-06
(PID.TID 0000.0001) %MON trcstat_ptracer0y_sd         =   7.6146599863258823E-05
(PID.TID 0000.0001) %MON trcstat_ptracer0y_del2       =   9.8925314334619434E-08
(PID.TID 0000.0001) %MON trcstat_ptracer0z_max        =   6.7200279237309684E-03
(PID.TID 0000.0001) %MON trcstat_ptracer0z_min        =   2.1667031500920223E-09
(PID.TID 0000.0001) %MON trcstat_ptracer0z_mean       =   9.1697231285044654E-06
(PID.TID 0000.0001) %MON trcstat_ptracer0z_sd         =   7.6169451119523568E-05
(PID.TID 0000.0001) %MON trcstat_ptracer0z_del2       =   9.9018182357897101E-08
(PID.TID 0000.0001) %MON trcstat_ptracer0A_max        =   6.7142686532729546E-03
(PID.TID 0000.0001) %MON trcstat_ptracer0A_min        =   2.1666451053801633E-09
(PID.TID 0000.0001) %MON trcstat_ptracer0A_mean       =   9.1694942959702451E-06
(PID.TID 0000.0001) %MON trcstat_ptracer0A_sd         =   7.6162019083305635E-05
(PID.TID 0000.0001) %MON trcstat_ptracer0A_del2       =   9.8986607636800298E-08
(PID.TID 0000.0001) %MON trcstat_ptracer0B_max        =   6.7096650035606458E-03
(PID.TID 0000.0001) %MON trcstat_ptracer0B_min        =   2.1665970449612953E-09
(PID.TID 0000.0001) %MON trcstat_ptracer0B_mean       =   9.1693110948492033E-06
(PID.TID 0000.0001) %MON trcstat_ptracer0B_sd         =   7.6156071237221289E-05
(PID.TID 0000.0001) %MON trcstat_ptracer0B_del2       =   9.8961357485062318E-08
(PID.TID 0000.0001) %MON trcstat_ptracer0C_max        =   6.7059562669030985E-03
(PID.TID 0000.0001) %MON trcstat_ptracer0C_min        =   2.1665572539768895E-09
(PID.TID 0000.0001) %MON trcstat_ptracer0C_mean       =   9.1691639193476675E-06
(PID.TID 0000.0001) %MON trcstat_ptracer0C_sd         =   7.6151290249804114E-05
(PID.TID 0000.0001) %MON trcstat_ptracer0C_del2       =   9.8941071357356138E-08
(PID.TID 0000.0001) %MON trcstat_ptracer0D_max        =   6.7021676414358109E-03
(PID.TID 0000.0001) %MON trcstat_ptracer0D_min        =   2.1665122412212551E-09
(PID.TID 0000.0001) %MON trcstat_ptracer0D_mean       =   9.1690035381115523E-06
(PID.TID 0000.0001) %MON trcstat_ptracer0D_sd         =   7.6146158111073481E-05
(PID.TID 0000.0001) %MON trcstat_ptracer0D_del2       =   9.8919691311076297E-08
(PID.TID 0000.0001) %MON trcstat_ptracer0E_max        =   6.6931392335986507E-03
(PID.TID 0000.0001) %MON trcstat_ptracer0E_min        =   2.1664025407236941E-09
(PID.TID 0000.0001) %MON trcstat_ptracer0E_mean       =   9.1686271411999716E-06
(PID.TID 0000.0001) %MON trcstat_ptracer0E_sd         =   7.6134050853284691E-05
(PID.TID 0000.0001) %MON trcstat_ptracer0E_del2       =   9.8869213099280270E-08
(PID.TID 0000.0001) %MON trcstat_ptracer0F_max        =   6.6923824191633006E-03
(PID.TID 0000.0001) %MON trcstat_ptracer0F_min        =   2.1663962358874016E-09
(PID.TID 0000.0001) %MON trcstat_ptracer0F_mean       =   9.1686046255978654E-06
(PID.TID 0000.0001) %MON trcstat_ptracer0F_sd         =   7.6133272614558028E-05
(PID.TID 0000.0001) %MON trcstat_ptracer0F_del2       =   9.8865680709658971E-08
(PID.TID 0000.0001) %MON trcstat_ptracer0G_max        =   6.6917600860846981E-03
(PID.TID 0000.0001) %MON trcstat_ptracer0G_min        =   2.1663910165715469E-09
(PID.TID 0000.0001) %MON trcstat_ptracer0G_mean       =   9.1685862072208175E-06
(PID.TID 0000.0001) %MON trcstat_ptracer0G_sd         =   7.6132635240926303E-05
(PID.TID 0000.0001) %MON trcstat_ptracer0G_del2       =   9.8862788612861982E-08
(PID.TID 0000.0001) %MON trcstat_ptracer0H_max        =   6.6912473237473735E-03
(PID.TID 0000.0001) %MON trcstat_ptracer0H_min        =   2.1663866959624071E-09
(PID.TID 0000.0001) %MON trcstat_ptracer0H_mean       =   9.1685710914352716E-06
(PID.TID 0000.0001) %MON trcstat_ptracer0H_sd         =   7.6132111599599959E-05
(PID.TID 0000.0001) %MON trcstat_ptracer0H_del2       =   9.8860412636425165E-08
(PID.TID 0000.0001) %MON trcstat_ptracer0I_max        =   0.0000000000000000E+00
(PID.TID 0000.0001) %MON trcstat_ptracer0I_min        =   0.0000000000000000E+00
(PID.TID 0000.0001) %MON trcstat_ptracer0I_mean       =   0.0000000000000000E+00
(PID.TID 0000.0001) %MON trcstat_ptracer0I_sd         =   0.0000000000000000E+00
(PID.TID 0000.0001) %MON trcstat_ptracer0I_del2       =   0.0000000000000000E+00
(PID.TID 0000.0001) %MON trcstat_ptracer0J_max        =   0.0000000000000000E+00
(PID.TID 0000.0001) %MON trcstat_ptracer0J_min        =   0.0000000000000000E+00
(PID.TID 0000.0001) %MON trcstat_ptracer0J_mean       =   0.0000000000000000E+00
(PID.TID 0000.0001) %MON trcstat_ptracer0J_sd         =   0.0000000000000000E+00
(PID.TID 0000.0001) %MON trcstat_ptracer0J_del2       =   0.0000000000000000E+00
(PID.TID 0000.0001) %MON trcstat_ptracer0K_max        =   0.0000000000000000E+00
(PID.TID 0000.0001) %MON trcstat_ptracer0K_min        =   0.0000000000000000E+00
(PID.TID 0000.0001) %MON trcstat_ptracer0K_mean       =   0.0000000000000000E+00
(PID.TID 0000.0001) %MON trcstat_ptracer0K_sd         =   0.0000000000000000E+00
(PID.TID 0000.0001) %MON trcstat_ptracer0K_del2       =   0.0000000000000000E+00
(PID.TID 0000.0001) %MON trcstat_ptracer0L_max        =   0.0000000000000000E+00
(PID.TID 0000.0001) %MON trcstat_ptracer0L_min        =   0.0000000000000000E+00
(PID.TID 0000.0001) %MON trcstat_ptracer0L_mean       =   0.0000000000000000E+00
(PID.TID 0000.0001) %MON trcstat_ptracer0L_sd         =   0.0000000000000000E+00
(PID.TID 0000.0001) %MON trcstat_ptracer0L_del2       =   0.0000000000000000E+00
(PID.TID 0000.0001) %MON trcstat_ptracer0M_max        =   0.0000000000000000E+00
(PID.TID 0000.0001) %MON trcstat_ptracer0M_min        =   0.0000000000000000E+00
(PID.TID 0000.0001) %MON trcstat_ptracer0M_mean       =   0.0000000000000000E+00
(PID.TID 0000.0001) %MON trcstat_ptracer0M_sd         =   0.0000000000000000E+00
(PID.TID 0000.0001) %MON trcstat_ptracer0M_del2       =   0.0000000000000000E+00
(PID.TID 0000.0001) %MON trcstat_ptracer0N_max        =   0.0000000000000000E+00
(PID.TID 0000.0001) %MON trcstat_ptracer0N_min        =   0.0000000000000000E+00
(PID.TID 0000.0001) %MON trcstat_ptracer0N_mean       =   0.0000000000000000E+00
(PID.TID 0000.0001) %MON trcstat_ptracer0N_sd         =   0.0000000000000000E+00
(PID.TID 0000.0001) %MON trcstat_ptracer0N_del2       =   0.0000000000000000E+00
(PID.TID 0000.0001) %MON trcstat_ptracer0O_max        =   1.0310526624142274E-01
(PID.TID 0000.0001) %MON trcstat_ptracer0O_min        =   4.0469292065379810E-08
(PID.TID 0000.0001) %MON trcstat_ptracer0O_mean       =   1.4262894022242753E-04
(PID.TID 0000.0001) %MON trcstat_ptracer0O_sd         =   1.1876878347125200E-03
(PID.TID 0000.0001) %MON trcstat_ptracer0O_del2       =   1.5389202878793822E-06
(PID.TID 0000.0001) %MON trcstat_ptracer0P_max        =   0.0000000000000000E+00
(PID.TID 0000.0001) %MON trcstat_ptracer0P_min        =   0.0000000000000000E+00
(PID.TID 0000.0001) %MON trcstat_ptracer0P_mean       =   0.0000000000000000E+00
(PID.TID 0000.0001) %MON trcstat_ptracer0P_sd         =   0.0000000000000000E+00
(PID.TID 0000.0001) %MON trcstat_ptracer0P_del2       =   0.0000000000000000E+00
(PID.TID 0000.0001) %MON trcstat_ptracer0Q_max        =   0.0000000000000000E+00
(PID.TID 0000.0001) %MON trcstat_ptracer0Q_min        =   0.0000000000000000E+00
(PID.TID 0000.0001) %MON trcstat_ptracer0Q_mean       =   0.0000000000000000E+00
(PID.TID 0000.0001) %MON trcstat_ptracer0Q_sd         =   0.0000000000000000E+00
(PID.TID 0000.0001) %MON trcstat_ptracer0Q_del2       =   0.0000000000000000E+00
(PID.TID 0000.0001) %MON trcstat_ptracer0R_max        =   1.0355483509566914E-01
(PID.TID 0000.0001) %MON trcstat_ptracer0R_min        =   4.3326469297514606E-08
(PID.TID 0000.0001) %MON trcstat_ptracer0R_mean       =   1.4264336701883801E-04
(PID.TID 0000.0001) %MON trcstat_ptracer0R_sd         =   1.1879781168691434E-03
(PID.TID 0000.0001) %MON trcstat_ptracer0R_del2       =   1.5402900385744344E-06
(PID.TID 0000.0001) %MON trcstat_ptracer0S_max        =   0.0000000000000000E+00
(PID.TID 0000.0001) %MON trcstat_ptracer0S_min        =   0.0000000000000000E+00
(PID.TID 0000.0001) %MON trcstat_ptracer0S_mean       =   0.0000000000000000E+00
(PID.TID 0000.0001) %MON trcstat_ptracer0S_sd         =   0.0000000000000000E+00
(PID.TID 0000.0001) %MON trcstat_ptracer0S_del2       =   0.0000000000000000E+00
(PID.TID 0000.0001) %MON trcstat_ptracer0T_max        =   0.0000000000000000E+00
(PID.TID 0000.0001) %MON trcstat_ptracer0T_min        =   0.0000000000000000E+00
(PID.TID 0000.0001) %MON trcstat_ptracer0T_mean       =   0.0000000000000000E+00
(PID.TID 0000.0001) %MON trcstat_ptracer0T_sd         =   0.0000000000000000E+00
(PID.TID 0000.0001) %MON trcstat_ptracer0T_del2       =   0.0000000000000000E+00
(PID.TID 0000.0001) %MON trcstat_ptracer0U_max        =   1.0397151477451966E-01
(PID.TID 0000.0001) %MON trcstat_ptracer0U_min        =   4.7319477500220024E-08
(PID.TID 0000.0001) %MON trcstat_ptracer0U_mean       =   1.4265537794159484E-04
(PID.TID 0000.0001) %MON trcstat_ptracer0U_sd         =   1.1881200184519524E-03
(PID.TID 0000.0001) %MON trcstat_ptracer0U_del2       =   1.5410982573992522E-06
(PID.TID 0000.0001) %MON trcstat_ptracer0V_max        =   0.0000000000000000E+00
(PID.TID 0000.0001) %MON trcstat_ptracer0V_min        =   0.0000000000000000E+00
(PID.TID 0000.0001) %MON trcstat_ptracer0V_mean       =   0.0000000000000000E+00
(PID.TID 0000.0001) %MON trcstat_ptracer0V_sd         =   0.0000000000000000E+00
(PID.TID 0000.0001) %MON trcstat_ptracer0V_del2       =   0.0000000000000000E+00
(PID.TID 0000.0001) %MON trcstat_ptracer0W_max        =   0.0000000000000000E+00
(PID.TID 0000.0001) %MON trcstat_ptracer0W_min        =   0.0000000000000000E+00
(PID.TID 0000.0001) %MON trcstat_ptracer0W_mean       =   0.0000000000000000E+00
(PID.TID 0000.0001) %MON trcstat_ptracer0W_sd         =   0.0000000000000000E+00
(PID.TID 0000.0001) %MON trcstat_ptracer0W_del2       =   0.0000000000000000E+00
(PID.TID 0000.0001) %MON trcstat_ptracer0X_max        =   1.0437805306850255E-01
(PID.TID 0000.0001) %MON trcstat_ptracer0X_min        =   5.2904614656706403E-08
(PID.TID 0000.0001) %MON trcstat_ptracer0X_mean       =   1.4266537815098358E-04
(PID.TID 0000.0001) %MON trcstat_ptracer0X_sd         =   1.1880992372700415E-03
(PID.TID 0000.0001) %MON trcstat_ptracer0X_del2       =   1.5413143060789991E-06
(PID.TID 0000.0001) %MON trcstat_ptracer0Y_max        =   0.0000000000000000E+00
(PID.TID 0000.0001) %MON trcstat_ptracer0Y_min        =   0.0000000000000000E+00
(PID.TID 0000.0001) %MON trcstat_ptracer0Y_mean       =   0.0000000000000000E+00
(PID.TID 0000.0001) %MON trcstat_ptracer0Y_sd         =   0.0000000000000000E+00
(PID.TID 0000.0001) %MON trcstat_ptracer0Y_del2       =   0.0000000000000000E+00
(PID.TID 0000.0001) %MON trcstat_ptracer0Z_max        =   0.0000000000000000E+00
(PID.TID 0000.0001) %MON trcstat_ptracer0Z_min        =   0.0000000000000000E+00
(PID.TID 0000.0001) %MON trcstat_ptracer0Z_mean       =   0.0000000000000000E+00
(PID.TID 0000.0001) %MON trcstat_ptracer0Z_sd         =   0.0000000000000000E+00
(PID.TID 0000.0001) %MON trcstat_ptracer0Z_del2       =   0.0000000000000000E+00
(PID.TID 0000.0001) %MON trcstat_ptracer1a_max        =   1.0480836097170498E-01
(PID.TID 0000.0001) %MON trcstat_ptracer1a_min        =   6.0726585853645775E-08
(PID.TID 0000.0001) %MON trcstat_ptracer1a_mean       =   1.4267489711291821E-04
(PID.TID 0000.0001) %MON trcstat_ptracer1a_sd         =   1.1879214918087974E-03
(PID.TID 0000.0001) %MON trcstat_ptracer1a_del2       =   1.5409730766978744E-06
(PID.TID 0000.0001) %MON trcstat_ptracer1b_max        =   0.0000000000000000E+00
(PID.TID 0000.0001) %MON trcstat_ptracer1b_min        =   0.0000000000000000E+00
(PID.TID 0000.0001) %MON trcstat_ptracer1b_mean       =   0.0000000000000000E+00
(PID.TID 0000.0001) %MON trcstat_ptracer1b_sd         =   0.0000000000000000E+00
(PID.TID 0000.0001) %MON trcstat_ptracer1b_del2       =   0.0000000000000000E+00
(PID.TID 0000.0001) %MON trcstat_ptracer1c_max        =   1.0545776437943716E-01
(PID.TID 0000.0001) %MON trcstat_ptracer1c_min        =   7.1709814174472269E-08
(PID.TID 0000.0001) %MON trcstat_ptracer1c_mean       =   1.4269382090206372E-04
(PID.TID 0000.0001) %MON trcstat_ptracer1c_sd         =   1.1878379685019850E-03
(PID.TID 0000.0001) %MON trcstat_ptracer1c_del2       =   1.5410975159949020E-06
(PID.TID 0000.0001) %MON trcstat_ptracer1d_max        =   1.0598188171137515E-01
(PID.TID 0000.0001) %MON trcstat_ptracer1d_min        =   8.7178575766926338E-08
(PID.TID 0000.0001) %MON trcstat_ptracer1d_mean       =   1.4269754217555177E-04
(PID.TID 0000.0001) %MON trcstat_ptracer1d_sd         =   1.1870438389416623E-03
(PID.TID 0000.0001) %MON trcstat_ptracer1d_del2       =   1.5386855141491728E-06
(PID.TID 0000.0001) %MON trcstat_ptracer1e_max        =   1.0664917143958769E-01
(PID.TID 0000.0001) %MON trcstat_ptracer1e_min        =   1.0913571852280024E-07
(PID.TID 0000.0001) %MON trcstat_ptracer1e_mean       =   1.4270083342728148E-04
(PID.TID 0000.0001) %MON trcstat_ptracer1e_sd         =   1.1858872415528724E-03
(PID.TID 0000.0001) %MON trcstat_ptracer1e_del2       =   1.5351557199089861E-06
(PID.TID 0000.0001) %MON trcstat_ptracer1f_max        =   1.0752665877147963E-01
(PID.TID 0000.0001) %MON trcstat_ptracer1f_min        =   1.4074881136583667E-07
(PID.TID 0000.0001) %MON trcstat_ptracer1f_mean       =   1.4270385692598586E-04
(PID.TID 0000.0001) %MON trcstat_ptracer1f_sd         =   1.1842544054983016E-03
(PID.TID 0000.0001) %MON trcstat_ptracer1f_del2       =   1.5302494830776545E-06
(PID.TID 0000.0001) %MON trcstat_ptracer1g_max        =   0.0000000000000000E+00
(PID.TID 0000.0001) %MON trcstat_ptracer1g_min        =   0.0000000000000000E+00
(PID.TID 0000.0001) %MON trcstat_ptracer1g_mean       =   0.0000000000000000E+00
(PID.TID 0000.0001) %MON trcstat_ptracer1g_sd         =   0.0000000000000000E+00
(PID.TID 0000.0001) %MON trcstat_ptracer1g_del2       =   0.0000000000000000E+00
(PID.TID 0000.0001) %MON trcstat_ptracer1h_max        =   0.0000000000000000E+00
(PID.TID 0000.0001) %MON trcstat_ptracer1h_min        =   0.0000000000000000E+00
(PID.TID 0000.0001) %MON trcstat_ptracer1h_mean       =   0.0000000000000000E+00
(PID.TID 0000.0001) %MON trcstat_ptracer1h_sd         =   0.0000000000000000E+00
(PID.TID 0000.0001) %MON trcstat_ptracer1h_del2       =   0.0000000000000000E+00
(PID.TID 0000.0001) %MON trcstat_ptracer1i_max        =   0.0000000000000000E+00
(PID.TID 0000.0001) %MON trcstat_ptracer1i_min        =   0.0000000000000000E+00
(PID.TID 0000.0001) %MON trcstat_ptracer1i_mean       =   0.0000000000000000E+00
(PID.TID 0000.0001) %MON trcstat_ptracer1i_sd         =   0.0000000000000000E+00
(PID.TID 0000.0001) %MON trcstat_ptracer1i_del2       =   0.0000000000000000E+00
(PID.TID 0000.0001) %MON trcstat_ptracer1j_max        =   0.0000000000000000E+00
(PID.TID 0000.0001) %MON trcstat_ptracer1j_min        =   0.0000000000000000E+00
(PID.TID 0000.0001) %MON trcstat_ptracer1j_mean       =   0.0000000000000000E+00
(PID.TID 0000.0001) %MON trcstat_ptracer1j_sd         =   0.0000000000000000E+00
(PID.TID 0000.0001) %MON trcstat_ptracer1j_del2       =   0.0000000000000000E+00
(PID.TID 0000.0001) %MON trcstat_ptracer1k_max        =   0.0000000000000000E+00
(PID.TID 0000.0001) %MON trcstat_ptracer1k_min        =   0.0000000000000000E+00
(PID.TID 0000.0001) %MON trcstat_ptracer1k_mean       =   0.0000000000000000E+00
(PID.TID 0000.0001) %MON trcstat_ptracer1k_sd         =   0.0000000000000000E+00
(PID.TID 0000.0001) %MON trcstat_ptracer1k_del2       =   0.0000000000000000E+00
(PID.TID 0000.0001) %MON trcstat_ptracer1l_max        =   0.0000000000000000E+00
(PID.TID 0000.0001) %MON trcstat_ptracer1l_min        =   0.0000000000000000E+00
(PID.TID 0000.0001) %MON trcstat_ptracer1l_mean       =   0.0000000000000000E+00
(PID.TID 0000.0001) %MON trcstat_ptracer1l_sd         =   0.0000000000000000E+00
(PID.TID 0000.0001) %MON trcstat_ptracer1l_del2       =   0.0000000000000000E+00
(PID.TID 0000.0001) %MON trcstat_ptracer1m_max        =   0.0000000000000000E+00
(PID.TID 0000.0001) %MON trcstat_ptracer1m_min        =   0.0000000000000000E+00
(PID.TID 0000.0001) %MON trcstat_ptracer1m_mean       =   0.0000000000000000E+00
(PID.TID 0000.0001) %MON trcstat_ptracer1m_sd         =   0.0000000000000000E+00
(PID.TID 0000.0001) %MON trcstat_ptracer1m_del2       =   0.0000000000000000E+00
(PID.TID 0000.0001) %MON trcstat_ptracer1n_max        =   0.0000000000000000E+00
(PID.TID 0000.0001) %MON trcstat_ptracer1n_min        =   0.0000000000000000E+00
(PID.TID 0000.0001) %MON trcstat_ptracer1n_mean       =   0.0000000000000000E+00
(PID.TID 0000.0001) %MON trcstat_ptracer1n_sd         =   0.0000000000000000E+00
(PID.TID 0000.0001) %MON trcstat_ptracer1n_del2       =   0.0000000000000000E+00
(PID.TID 0000.0001) %MON trcstat_ptracer1o_max        =   0.0000000000000000E+00
(PID.TID 0000.0001) %MON trcstat_ptracer1o_min        =   0.0000000000000000E+00
(PID.TID 0000.0001) %MON trcstat_ptracer1o_mean       =   0.0000000000000000E+00
(PID.TID 0000.0001) %MON trcstat_ptracer1o_sd         =   0.0000000000000000E+00
(PID.TID 0000.0001) %MON trcstat_ptracer1o_del2       =   0.0000000000000000E+00
(PID.TID 0000.0001) %MON trcstat_ptracer1p_max        =   0.0000000000000000E+00
(PID.TID 0000.0001) %MON trcstat_ptracer1p_min        =   0.0000000000000000E+00
(PID.TID 0000.0001) %MON trcstat_ptracer1p_mean       =   0.0000000000000000E+00
(PID.TID 0000.0001) %MON trcstat_ptracer1p_sd         =   0.0000000000000000E+00
(PID.TID 0000.0001) %MON trcstat_ptracer1p_del2       =   0.0000000000000000E+00
(PID.TID 0000.0001) %MON trcstat_ptracer1q_max        =   0.0000000000000000E+00
(PID.TID 0000.0001) %MON trcstat_ptracer1q_min        =   0.0000000000000000E+00
(PID.TID 0000.0001) %MON trcstat_ptracer1q_mean       =   0.0000000000000000E+00
(PID.TID 0000.0001) %MON trcstat_ptracer1q_sd         =   0.0000000000000000E+00
(PID.TID 0000.0001) %MON trcstat_ptracer1q_del2       =   0.0000000000000000E+00
(PID.TID 0000.0001) %MON trcstat_ptracer1r_max        =   0.0000000000000000E+00
(PID.TID 0000.0001) %MON trcstat_ptracer1r_min        =   0.0000000000000000E+00
(PID.TID 0000.0001) %MON trcstat_ptracer1r_mean       =   0.0000000000000000E+00
(PID.TID 0000.0001) %MON trcstat_ptracer1r_sd         =   0.0000000000000000E+00
(PID.TID 0000.0001) %MON trcstat_ptracer1r_del2       =   0.0000000000000000E+00
(PID.TID 0000.0001) %MON trcstat_ptracer1s_max        =   0.0000000000000000E+00
(PID.TID 0000.0001) %MON trcstat_ptracer1s_min        =   0.0000000000000000E+00
(PID.TID 0000.0001) %MON trcstat_ptracer1s_mean       =   0.0000000000000000E+00
(PID.TID 0000.0001) %MON trcstat_ptracer1s_sd         =   0.0000000000000000E+00
(PID.TID 0000.0001) %MON trcstat_ptracer1s_del2       =   0.0000000000000000E+00
(PID.TID 0000.0001) %MON trcstat_ptracer1t_max        =   0.0000000000000000E+00
(PID.TID 0000.0001) %MON trcstat_ptracer1t_min        =   0.0000000000000000E+00
(PID.TID 0000.0001) %MON trcstat_ptracer1t_mean       =   0.0000000000000000E+00
(PID.TID 0000.0001) %MON trcstat_ptracer1t_sd         =   0.0000000000000000E+00
(PID.TID 0000.0001) %MON trcstat_ptracer1t_del2       =   0.0000000000000000E+00
(PID.TID 0000.0001) %MON trcstat_ptracer1u_max        =   1.2501182791019759E-05
(PID.TID 0000.0001) %MON trcstat_ptracer1u_min        =   4.2412652662548243E-12
(PID.TID 0000.0001) %MON trcstat_ptracer1u_mean       =   1.5099123996426025E-08
(PID.TID 0000.0001) %MON trcstat_ptracer1u_sd         =   1.3417264438405911E-07
(PID.TID 0000.0001) %MON trcstat_ptracer1u_del2       =   1.8680193154904545E-10
(PID.TID 0000.0001) %MON trcstat_ptracer1v_max        =   1.0859877588218615E-05
(PID.TID 0000.0001) %MON trcstat_ptracer1v_min        =   3.7183637455484290E-12
(PID.TID 0000.0001) %MON trcstat_ptracer1v_mean       =   1.3245581198866437E-08
(PID.TID 0000.0001) %MON trcstat_ptracer1v_sd         =   1.1658229259115269E-07
(PID.TID 0000.0001) %MON trcstat_ptracer1v_del2       =   1.6005971154326662E-10
(PID.TID 0000.0001) %MON trcstat_ptracer1w_max        =   9.6404006266380949E-06
(PID.TID 0000.0001) %MON trcstat_ptracer1w_min        =   3.3526712713785985E-12
(PID.TID 0000.0001) %MON trcstat_ptracer1w_mean       =   1.1913107682379270E-08
(PID.TID 0000.0001) %MON trcstat_ptracer1w_sd         =   1.0382462880434628E-07
(PID.TID 0000.0001) %MON trcstat_ptracer1w_del2       =   1.4080972796219283E-10
(PID.TID 0000.0001) %MON trcstat_ptracer1x_max        =   8.7429642752350119E-06
(PID.TID 0000.0001) %MON trcstat_ptracer1x_min        =   3.1139863029211948E-12
(PID.TID 0000.0001) %MON trcstat_ptracer1x_mean       =   1.0964862667804303E-08
(PID.TID 0000.0001) %MON trcstat_ptracer1x_sd         =   9.4672684685681173E-08
(PID.TID 0000.0001) %MON trcstat_ptracer1x_del2       =   1.2709796925236209E-10
(PID.TID 0000.0001) %MON trcstat_ptracer1y_max        =   2.6844885322459671E-06
(PID.TID 0000.0001) %MON trcstat_ptracer1y_min        =   9.9760325434365199E-13
(PID.TID 0000.0001) %MON trcstat_ptracer1y_mean       =   3.6561836468764109E-09
(PID.TID 0000.0001) %MON trcstat_ptracer1y_sd         =   3.0600968321317396E-08
(PID.TID 0000.0001) %MON trcstat_ptracer1y_del2       =   3.9868068758511093E-11
(PID.TID 0000.0001) %MON trcstat_ptracer1z_max        =   8.0813092282017514E-06
(PID.TID 0000.0001) %MON trcstat_ptracer1z_min        =   2.9820159673931509E-12
(PID.TID 0000.0001) %MON trcstat_ptracer1z_mean       =   1.0296885178542340E-08
(PID.TID 0000.0001) %MON trcstat_ptracer1z_sd         =   8.8164948969650289E-08
(PID.TID 0000.0001) %MON trcstat_ptracer1z_del2       =   1.1736658103615303E-10
(PID.TID 0000.0001) %MON trcstat_ptracer1A_max        =   7.6404911903241286E-06
(PID.TID 0000.0001) %MON trcstat_ptracer1A_min        =   2.9475665433993267E-12
(PID.TID 0000.0001) %MON trcstat_ptracer1A_mean       =   9.8821579655156090E-09
(PID.TID 0000.0001) %MON trcstat_ptracer1A_sd         =   8.3913868960576090E-08
(PID.TID 0000.0001) %MON trcstat_ptracer1A_del2       =   1.1088885810861837E-10
(PID.TID 0000.0001) %MON trcstat_ptracer1B_max        =   2.6516528333187765E-06
(PID.TID 0000.0001) %MON trcstat_ptracer1B_min        =   1.0379804775491467E-12
(PID.TID 0000.0001) %MON trcstat_ptracer1B_mean       =   3.6253702494593477E-09
(PID.TID 0000.0001) %MON trcstat_ptracer1B_sd         =   3.0291768563123375E-08
(PID.TID 0000.0001) %MON trcstat_ptracer1B_del2       =   3.9379895376226204E-11
(PID.TID 0000.0001) %MON trcstat_ptracer1C_max        =   7.5808329340810269E-06
(PID.TID 0000.0001) %MON trcstat_ptracer1C_min        =   2.9456461706235250E-12
(PID.TID 0000.0001) %MON trcstat_ptracer1C_mean       =   9.8303127318329968E-09
(PID.TID 0000.0001) %MON trcstat_ptracer1C_sd         =   8.3539916562871292E-08
(PID.TID 0000.0001) %MON trcstat_ptracer1C_del2       =   1.1034103869810895E-10
(PID.TID 0000.0001) %MON trcstat_ptracer1D_max        =   7.2911824095359929E-06
(PID.TID 0000.0001) %MON trcstat_ptracer1D_min        =   3.0062830381864736E-12
(PID.TID 0000.0001) %MON trcstat_ptracer1D_mean       =   9.5444817339690956E-09
(PID.TID 0000.0001) %MON trcstat_ptracer1D_sd         =   8.0622256365186987E-08
(PID.TID 0000.0001) %MON trcstat_ptracer1D_del2       =   1.0600449091558822E-10
(PID.TID 0000.0001) %MON trcstat_ptracer1E_max        =   2.6396508310160826E-06
(PID.TID 0000.0001) %MON trcstat_ptracer1E_min        =   1.1018383062301874E-12
(PID.TID 0000.0001) %MON trcstat_ptracer1E_mean       =   3.6049531840491560E-09
(PID.TID 0000.0001) %MON trcstat_ptracer1E_sd         =   3.0095892433332129E-08
(PID.TID 0000.0001) %MON trcstat_ptracer1E_del2       =   3.9111922354507631E-11
(PID.TID 0000.0001) %MON trcstat_ptracer1F_max        =   7.2520121955675964E-06
(PID.TID 0000.0001) %MON trcstat_ptracer1F_min        =   3.0049774606006553E-12
(PID.TID 0000.0001) %MON trcstat_ptracer1F_mean       =   9.5121275329419124E-09
(PID.TID 0000.0001) %MON trcstat_ptracer1F_sd         =   8.0387887698393070E-08
(PID.TID 0000.0001) %MON trcstat_ptracer1F_del2       =   1.0566382515767730E-10
(PID.TID 0000.0001) %MON trcstat_ptracer1G_max        =   7.0480126439265680E-06
(PID.TID 0000.0001) %MON trcstat_ptracer1G_min        =   3.1685968033869950E-12
(PID.TID 0000.0001) %MON trcstat_ptracer1G_mean       =   9.3166256626922235E-09
(PID.TID 0000.0001) %MON trcstat_ptracer1G_sd         =   7.8370108479814850E-08
(PID.TID 0000.0001) %MON trcstat_ptracer1G_del2       =   1.0264449673285779E-10
(PID.TID 0000.0001) %MON trcstat_ptracer1H_max        =   2.6334846165572096E-06
(PID.TID 0000.0001) %MON trcstat_ptracer1H_min        =   1.1962186067397908E-12
(PID.TID 0000.0001) %MON trcstat_ptracer1H_mean       =   3.5912256328171509E-09
(PID.TID 0000.0001) %MON trcstat_ptracer1H_sd         =   2.9960096666762183E-08
(PID.TID 0000.0001) %MON trcstat_ptracer1H_del2       =   3.8922900598313702E-11
(PID.TID 0000.0001) %MON trcstat_ptracer1I_max        =   7.0233840053186723E-06
(PID.TID 0000.0001) %MON trcstat_ptracer1I_min        =   3.1677500686631638E-12
(PID.TID 0000.0001) %MON trcstat_ptracer1I_mean       =   9.2974507973368972E-09
(PID.TID 0000.0001) %MON trcstat_ptracer1I_sd         =   7.8230239409920086E-08
(PID.TID 0000.0001) %MON trcstat_ptracer1I_del2       =   1.0244131612101106E-10
(PID.TID 0000.0001) %MON trcstat_ptracer1J_max        =   6.8849315774637586E-06
(PID.TID 0000.0001) %MON trcstat_ptracer1J_min        =   3.4543739247096004E-12
(PID.TID 0000.0001) %MON trcstat_ptracer1J_mean       =   9.1663446304452971E-09
(PID.TID 0000.0001) %MON trcstat_ptracer1J_sd         =   7.6855132809117302E-08
(PID.TID 0000.0001) %MON trcstat_ptracer1J_del2       =   1.0035885620191149E-10
(PID.TID 0000.0001) %MON trcstat_ptracer1K_max        =   2.6319978009841312E-06
(PID.TID 0000.0001) %MON trcstat_ptracer1K_min        =   1.3319582963453694E-12
(PID.TID 0000.0001) %MON trcstat_ptracer1K_mean       =   3.5821833214744714E-09
(PID.TID 0000.0001) %MON trcstat_ptracer1K_sd         =   2.9865720430138876E-08
(PID.TID 0000.0001) %MON trcstat_ptracer1K_del2       =   3.8785986333267171E-11
(PID.TID 0000.0001) %MON trcstat_ptracer1L_max        =   6.8698777430947520E-06
(PID.TID 0000.0001) %MON trcstat_ptracer1L_min        =   3.4538334725070049E-12
(PID.TID 0000.0001) %MON trcstat_ptracer1L_mean       =   9.1553723267346142E-09
(PID.TID 0000.0001) %MON trcstat_ptracer1L_sd         =   7.6774276099060455E-08
(PID.TID 0000.0001) %MON trcstat_ptracer1L_del2       =   1.0024080357300459E-10
(PID.TID 0000.0001) %MON trcstat_ptracer1M_max        =   6.7824661911756278E-06
(PID.TID 0000.0001) %MON trcstat_ptracer1M_min        =   3.8974176930410705E-12
(PID.TID 0000.0001) %MON trcstat_ptracer1M_mean       =   9.0695690624927519E-09
(PID.TID 0000.0001) %MON trcstat_ptracer1M_sd         =   7.5852072978748364E-08
(PID.TID 0000.0001) %MON trcstat_ptracer1M_del2       =   9.8818423190567552E-11
(PID.TID 0000.0001) %MON trcstat_ptracer1N_max        =   6.7735415852385440E-06
(PID.TID 0000.0001) %MON trcstat_ptracer1N_min        =   3.8970777747561478E-12
(PID.TID 0000.0001) %MON trcstat_ptracer1N_mean       =   9.0634509859905264E-09
(PID.TID 0000.0001) %MON trcstat_ptracer1N_sd         =   7.5806501790649473E-08
(PID.TID 0000.0001) %MON trcstat_ptracer1N_del2       =   9.8751456101753137E-11
(PID.TID 0000.0001) %MON trcstat_ptracer1O_max        =   6.7365214377143270E-06
(PID.TID 0000.0001) %MON trcstat_ptracer1O_min        =   4.5533674734508056E-12
(PID.TID 0000.0001) %MON trcstat_ptracer1O_mean       =   9.0093745770841408E-09
(PID.TID 0000.0001) %MON trcstat_ptracer1O_sd         =   7.5211898433456113E-08
(PID.TID 0000.0001) %MON trcstat_ptracer1O_del2       =   9.7846197689440680E-11
(PID.TID 0000.0001) %MON trcstat_ptracer1P_max        =   6.7126688354282224E-06
(PID.TID 0000.0001) %MON trcstat_ptracer1P_min        =   5.4991648211108122E-12
(PID.TID 0000.0001) %MON trcstat_ptracer1P_mean       =   8.9718343001691148E-09
(PID.TID 0000.0001) %MON trcstat_ptracer1P_sd         =   7.4765213155742307E-08
(PID.TID 0000.0001) %MON trcstat_ptracer1P_del2       =   9.7076919058472959E-11
(PID.TID 0000.0001) %MON trcstat_ptracer1Q_max        =   6.7185315924111730E-06
(PID.TID 0000.0001) %MON trcstat_ptracer1Q_min        =   6.8568033874054166E-12
(PID.TID 0000.0001) %MON trcstat_ptracer1Q_mean       =   8.9493559075290680E-09
(PID.TID 0000.0001) %MON trcstat_ptracer1Q_sd         =   7.4451136479300025E-08
(PID.TID 0000.0001) %MON trcstat_ptracer1Q_del2       =   9.6476791942534414E-11
(PID.TID 0000.0001) %MON trcstat_ptracer1R_max        =   6.7513308453097346E-06
(PID.TID 0000.0001) %MON trcstat_ptracer1R_min        =   8.8223464546048473E-12
(PID.TID 0000.0001) %MON trcstat_ptracer1R_mean       =   8.9362322038953301E-09
(PID.TID 0000.0001) %MON trcstat_ptracer1R_sd         =   7.4205430093572517E-08
(PID.TID 0000.0001) %MON trcstat_ptracer1R_del2       =   9.5943224657592089E-11
(PID.TID 0000.0001) %MON trcstat_ptracer1S_max        =   6.8496356270778086E-06
(PID.TID 0000.0001) %MON trcstat_ptracer1S_min        =   2.1674263979884342E-12
(PID.TID 0000.0001) %MON trcstat_ptracer1S_mean       =   9.1730697048911632E-09
(PID.TID 0000.0001) %MON trcstat_ptracer1S_sd         =   7.6290867163474711E-08
(PID.TID 0000.0001) %MON trcstat_ptracer1S_del2       =   9.9577944883378639E-11
(PID.TID 0000.0001) %MON trcstat_ptracer1T_max        =   6.8132364516780927E-06
(PID.TID 0000.0001) %MON trcstat_ptracer1T_min        =   2.1672441798980720E-12
(PID.TID 0000.0001) %MON trcstat_ptracer1T_mean       =   9.1720407317659812E-09
(PID.TID 0000.0001) %MON trcstat_ptracer1T_sd         =   7.6254286459488316E-08
(PID.TID 0000.0001) %MON trcstat_ptracer1T_del2       =   9.9412313312028353E-11
(PID.TID 0000.0001) %MON trcstat_ptracer1U_max        =   6.7865452481108393E-06
(PID.TID 0000.0001) %MON trcstat_ptracer1U_min        =   2.1670931791216035E-12
(PID.TID 0000.0001) %MON trcstat_ptracer1U_mean       =   9.1712858671652889E-09
(PID.TID 0000.0001) %MON trcstat_ptracer1U_sd         =   7.6227524510735013E-08
(PID.TID 0000.0001) %MON trcstat_ptracer1U_del2       =   9.9291269276438451E-11
(PID.TID 0000.0001) %MON trcstat_ptracer1V_max        =   6.7665476322704783E-06
(PID.TID 0000.0001) %MON trcstat_ptracer1V_min        =   2.1669680844593003E-12
(PID.TID 0000.0001) %MON trcstat_ptracer1V_mean       =   9.1707195424802406E-09
(PID.TID 0000.0001) %MON trcstat_ptracer1V_sd         =   7.6207499616539346E-08
(PID.TID 0000.0001) %MON trcstat_ptracer1V_del2       =   9.9200763436306571E-11
(PID.TID 0000.0001) %MON trcstat_ptracer1W_max        =   6.7789103618492651E-06
(PID.TID 0000.0001) %MON trcstat_ptracer1W_min        =   2.1671188831716009E-12
(PID.TID 0000.0001) %MON trcstat_ptracer1W_mean       =   9.1711533400219154E-09
(PID.TID 0000.0001) %MON trcstat_ptracer1W_sd         =   7.6221995533001822E-08
(PID.TID 0000.0001) %MON trcstat_ptracer1W_del2       =   9.9263969241012098E-11
(PID.TID 0000.0001) %MON trcstat_ptracer1X_max        =   6.8461395770334801E-06
(PID.TID 0000.0001) %MON trcstat_ptracer1X_min        =   2.1680549790548594E-12
(PID.TID 0000.0001) %MON trcstat_ptracer1X_mean       =   9.1744831742199337E-09
(PID.TID 0000.0001) %MON trcstat_ptracer1X_sd         =   7.6325814308729181E-08
(PID.TID 0000.0001) %MON trcstat_ptracer1X_del2       =   9.9683643128591134E-11
(PID.TID 0000.0001) %MON trcstat_ptracer1Y_max        =   6.8172421206781710E-06
(PID.TID 0000.0001) %MON trcstat_ptracer1Y_min        =   2.1677642061011473E-12
(PID.TID 0000.0001) %MON trcstat_ptracer1Y_mean       =   9.1733867122152256E-09
(PID.TID 0000.0001) %MON trcstat_ptracer1Y_sd         =   7.6289707889193548E-08
(PID.TID 0000.0001) %MON trcstat_ptracer1Y_del2       =   9.9529799838861939E-11
(PID.TID 0000.0001) %MON trcstat_ptracer1Z_max        =   6.7940738434848967E-06
(PID.TID 0000.0001) %MON trcstat_ptracer1Z_min        =   2.1675234679813717E-12
(PID.TID 0000.0001) %MON trcstat_ptracer1Z_mean       =   9.1725046089136914E-09
(PID.TID 0000.0001) %MON trcstat_ptracer1Z_sd         =   7.6260741599012618E-08
(PID.TID 0000.0001) %MON trcstat_ptracer1Z_del2       =   9.9406470795375130E-11
(PID.TID 0000.0001) %MON trcstat_ptracer2a_max        =   6.7753491024468080E-06
(PID.TID 0000.0001) %MON trcstat_ptracer2a_min        =   2.1673241634054498E-12
(PID.TID 0000.0001) %MON trcstat_ptracer2a_mean       =   9.1717905648077154E-09
(PID.TID 0000.0001) %MON trcstat_ptracer2a_sd         =   7.6237331984481003E-08
(PID.TID 0000.0001) %MON trcstat_ptracer2a_del2       =   9.9306839386454990E-11
(PID.TID 0000.0001) %MON trcstat_ptracer2b_max        =   6.7478593621349476E-06
(PID.TID 0000.0001) %MON trcstat_ptracer2b_min        =   2.1670071140874687E-12
(PID.TID 0000.0001) %MON trcstat_ptracer2b_mean       =   9.1706926957040784E-09
(PID.TID 0000.0001) %MON trcstat_ptracer2b_sd         =   7.6201761550834978E-08
(PID.TID 0000.0001) %MON trcstat_ptracer2b_del2       =   9.9157228603639588E-11
(PID.TID 0000.0001) %MON trcstat_ptracer2c_max        =   6.7079469600549901E-06
(PID.TID 0000.0001) %MON trcstat_ptracer2c_min        =   2.1665263842958396E-12
(PID.TID 0000.0001) %MON trcstat_ptracer2c_mean       =   9.1690536045043539E-09
(PID.TID 0000.0001) %MON trcstat_ptracer2c_sd         =   7.6148872821051748E-08
(PID.TID 0000.0001) %MON trcstat_ptracer2c_del2       =   9.8936284433974179E-11
(PID.TID 0000.0001) %MON trcstat_ptracer2d_max        =   6.7045976127077650E-06
(PID.TID 0000.0001) %MON trcstat_ptracer2d_min        =   2.1664987547511879E-12
(PID.TID 0000.0001) %MON trcstat_ptracer2d_mean       =   9.1689560409535567E-09
(PID.TID 0000.0001) %MON trcstat_ptracer2d_sd         =   7.6145488784180583E-08
(PID.TID 0000.0001) %MON trcstat_ptracer2d_del2       =   9.8920908174314330E-11
(PID.TID 0000.0001) %MON trcstat_ptracer2e_max        =   6.7018486417231447E-06
(PID.TID 0000.0001) %MON trcstat_ptracer2e_min        =   2.1664758825111194E-12
(PID.TID 0000.0001) %MON trcstat_ptracer2e_mean       =   9.1688759507510422E-09
(PID.TID 0000.0001) %MON trcstat_ptracer2e_sd         =   7.6142710086161636E-08
(PID.TID 0000.0001) %MON trcstat_ptracer2e_del2       =   9.8908285433445429E-11
(PID.TID 0000.0001) %MON trcstat_ptracer2f_max        =   6.6995874601943119E-06
(PID.TID 0000.0001) %MON trcstat_ptracer2f_min        =   2.1664569487470297E-12
(PID.TID 0000.0001) %MON trcstat_ptracer2f_mean       =   9.1688100471753560E-09
(PID.TID 0000.0001) %MON trcstat_ptracer2f_sd         =   7.6140422733135472E-08
(PID.TID 0000.0001) %MON trcstat_ptracer2f_del2       =   9.8897895317750300E-11
(PID.TID 0000.0001) %MON trcstat_ptracer2g_max        =   2.1383034089890440E-01
(PID.TID 0000.0001) %MON trcstat_ptracer2g_min        =   1.0118922244745172E-07
(PID.TID 0000.0001) %MON trcstat_ptracer2g_mean       =   1.9599342090955885E-04
(PID.TID 0000.0001) %MON trcstat_ptracer2g_sd         =   1.8947322258421741E-03
(PID.TID 0000.0001) %MON trcstat_ptracer2g_del2       =   2.7893527414589122E-06
(PID.TID 0000.0001) %MON trcstat_ptracer2h_max        =   2.1428720230364071E-01
(PID.TID 0000.0001) %MON trcstat_ptracer2h_min        =   1.0393901620413675E-07
(PID.TID 0000.0001) %MON trcstat_ptracer2h_mean       =   1.9992581362224889E-04
(PID.TID 0000.0001) %MON trcstat_ptracer2h_sd         =   1.9196779758272118E-03
(PID.TID 0000.0001) %MON trcstat_ptracer2h_del2       =   2.7446738440420685E-06
(PID.TID 0000.0001) %MON trcstat_ptracer2i_max        =   2.1463996941312560E-01
(PID.TID 0000.0001) %MON trcstat_ptracer2i_min        =   1.0767641029033995E-07
(PID.TID 0000.0001) %MON trcstat_ptracer2i_mean       =   2.0383299627792294E-04
(PID.TID 0000.0001) %MON trcstat_ptracer2i_sd         =   1.9444719369168819E-03
(PID.TID 0000.0001) %MON trcstat_ptracer2i_del2       =   2.7306882214598338E-06
(PID.TID 0000.0001) %MON trcstat_ptracer2j_max        =   2.1493567207191622E-01
(PID.TID 0000.0001) %MON trcstat_ptracer2j_min        =   1.1366218144070211E-07
(PID.TID 0000.0001) %MON trcstat_ptracer2j_mean       =   2.0771203662720784E-04
(PID.TID 0000.0001) %MON trcstat_ptracer2j_sd         =   1.9690359739064286E-03
(PID.TID 0000.0001) %MON trcstat_ptracer2j_del2       =   2.7366066517361520E-06
(PID.TID 0000.0001) %MON trcstat_ptracer2k_max        =   2.1501954313225814E-02
(PID.TID 0000.0001) %MON trcstat_ptracer2k_min        =   1.2320749461939304E-08
(PID.TID 0000.0001) %MON trcstat_ptracer2k_mean       =   2.0434374118529258E-05
(PID.TID 0000.0001) %MON trcstat_ptracer2k_sd         =   1.9480411364129036E-04
(PID.TID 0000.0001) %MON trcstat_ptracer2k_del2       =   2.7088606716170578E-07
(PID.TID 0000.0001) %MON trcstat_ptracer2l_max        =   2.1559830918559858E-01
(PID.TID 0000.0001) %MON trcstat_ptracer2l_min        =   7.3671466502442615E-08
(PID.TID 0000.0001) %MON trcstat_ptracer2l_mean       =   2.5591632408079830E-04
(PID.TID 0000.0001) %MON trcstat_ptracer2l_sd         =   2.2653726915254444E-03
(PID.TID 0000.0001) %MON trcstat_ptracer2l_del2       =   3.0109630688357440E-06
(PID.TID 0000.0001) %MON trcstat_ptracer2m_max        =   2.2358878254661005E-01
(PID.TID 0000.0001) %MON trcstat_ptracer2m_min        =   8.3720751821811941E-08
(PID.TID 0000.0001) %MON trcstat_ptracer2m_mean       =   3.0309416363905577E-04
(PID.TID 0000.0001) %MON trcstat_ptracer2m_sd         =   2.5859784505214861E-03
(PID.TID 0000.0001) %MON trcstat_ptracer2m_del2       =   3.3238376412887873E-06
(PID.TID 0000.0001) %MON trcstat_ptracer2n_max        =   2.1472496047808886E-02
(PID.TID 0000.0001) %MON trcstat_ptracer2n_min        =   1.3619912730050195E-08
(PID.TID 0000.0001) %MON trcstat_ptracer2n_mean       =   1.9593621747890511E-05
(PID.TID 0000.0001) %MON trcstat_ptracer2n_sd         =   1.8945312731224852E-04
(PID.TID 0000.0001) %MON trcstat_ptracer2n_del2       =   2.6596534359520125E-07
(PID.TID 0000.0001) %MON trcstat_ptracer2o_max        =   2.1541529977529320E-01
(PID.TID 0000.0001) %MON trcstat_ptracer2o_min        =   7.5899399254821592E-08
(PID.TID 0000.0001) %MON trcstat_ptracer2o_mean       =   2.4909242579599760E-04
(PID.TID 0000.0001) %MON trcstat_ptracer2o_sd         =   2.2228172694556589E-03
(PID.TID 0000.0001) %MON trcstat_ptracer2o_del2       =   2.9641127910668555E-06
(PID.TID 0000.0001) %MON trcstat_ptracer2p_max        =   2.1571837009316527E-01
(PID.TID 0000.0001) %MON trcstat_ptracer2p_min        =   8.8026743816673558E-08
(PID.TID 0000.0001) %MON trcstat_ptracer2p_mean       =   2.7858928359703863E-04
(PID.TID 0000.0001) %MON trcstat_ptracer2p_sd         =   2.4008644398035121E-03
(PID.TID 0000.0001) %MON trcstat_ptracer2p_del2       =   3.1419608642960491E-06
(PID.TID 0000.0001) %MON trcstat_ptracer2q_max        =   2.1468186019136304E-02
(PID.TID 0000.0001) %MON trcstat_ptracer2q_min        =   1.5857016454786355E-08
(PID.TID 0000.0001) %MON trcstat_ptracer2q_mean       =   1.8747732193568507E-05
(PID.TID 0000.0001) %MON trcstat_ptracer2q_sd         =   1.8413280427520158E-04
(PID.TID 0000.0001) %MON trcstat_ptracer2q_del2       =   2.6140831288381559E-07
(PID.TID 0000.0001) %MON trcstat_ptracer2r_max        =   2.1550531838671175E-01
(PID.TID 0000.0001) %MON trcstat_ptracer2r_min        =   1.5344138128101582E-07
(PID.TID 0000.0001) %MON trcstat_ptracer2r_mean       =   2.4200509733432961E-04
(PID.TID 0000.0001) %MON trcstat_ptracer2r_sd         =   2.1799327624095030E-03
(PID.TID 0000.0001) %MON trcstat_ptracer2r_del2       =   2.9229513023160902E-06
(PID.TID 0000.0001) %MON trcstat_ptracer2s_max        =   2.1576668124418827E-01
(PID.TID 0000.0001) %MON trcstat_ptracer2s_min        =   9.4696155919741272E-08
(PID.TID 0000.0001) %MON trcstat_ptracer2s_mean       =   2.6977123498919832E-04
(PID.TID 0000.0001) %MON trcstat_ptracer2s_sd         =   2.3483966295396834E-03
(PID.TID 0000.0001) %MON trcstat_ptracer2s_del2       =   3.0925867760079250E-06
(PID.TID 0000.0001) %MON trcstat_ptracer2t_max        =   2.1453051362038410E-02
(PID.TID 0000.0001) %MON trcstat_ptracer2t_min        =   1.9181744402627917E-08
(PID.TID 0000.0001) %MON trcstat_ptracer2t_mean       =   1.7895300279795861E-05
(PID.TID 0000.0001) %MON trcstat_ptracer2t_sd         =   1.7870975477173989E-04
(PID.TID 0000.0001) %MON trcstat_ptracer2t_del2       =   2.5674404081544179E-07
(PID.TID 0000.0001) %MON trcstat_ptracer2u_max        =   2.1551241645882174E-01
(PID.TID 0000.0001) %MON trcstat_ptracer2u_min        =   1.9876899647295396E-07
(PID.TID 0000.0001) %MON trcstat_ptracer2u_mean       =   2.3461724808796739E-04
(PID.TID 0000.0001) %MON trcstat_ptracer2u_sd         =   2.1348913192426561E-03
(PID.TID 0000.0001) %MON trcstat_ptracer2u_del2       =   2.8801451111516337E-06
(PID.TID 0000.0001) %MON trcstat_ptracer2v_max        =   2.1573152729264775E-01
(PID.TID 0000.0001) %MON trcstat_ptracer2v_min        =   1.0411795994470440E-07
(PID.TID 0000.0001) %MON trcstat_ptracer2v_mean       =   2.6344228264306430E-04
(PID.TID 0000.0001) %MON trcstat_ptracer2v_sd         =   2.3107003944334817E-03
(PID.TID 0000.0001) %MON trcstat_ptracer2v_del2       =   3.0542732547512008E-06
(PID.TID 0000.0001) %MON trcstat_ptracer2w_max        =   2.1425882929413092E-02
(PID.TID 0000.0001) %MON trcstat_ptracer2w_min        =   1.8752852119999096E-08
(PID.TID 0000.0001) %MON trcstat_ptracer2w_mean       =   1.7040252651697238E-05
(PID.TID 0000.0001) %MON trcstat_ptracer2w_sd         =   1.7320843319547881E-04
(PID.TID 0000.0001) %MON trcstat_ptracer2w_del2       =   2.5198439854802532E-07
(PID.TID 0000.0001) %MON trcstat_ptracer2x_max        =   2.1542815761767642E-01
(PID.TID 0000.0001) %MON trcstat_ptracer2x_min        =   2.5207939199288184E-07
(PID.TID 0000.0001) %MON trcstat_ptracer2x_mean       =   2.2695738567283871E-04
(PID.TID 0000.0001) %MON trcstat_ptracer2x_sd         =   2.0877703562737810E-03
(PID.TID 0000.0001) %MON trcstat_ptracer2x_del2       =   2.8353819382797279E-06
(PID.TID 0000.0001) %MON trcstat_ptracer2y_max        =   2.1560616609260991E-01
(PID.TID 0000.0001) %MON trcstat_ptracer2y_min        =   1.1733654682152094E-07
(PID.TID 0000.0001) %MON trcstat_ptracer2y_mean       =   2.5708163058072673E-04
(PID.TID 0000.0001) %MON trcstat_ptracer2y_sd         =   2.2715754853940939E-03
(PID.TID 0000.0001) %MON trcstat_ptracer2y_del2       =   3.0134924526001696E-06
(PID.TID 0000.0001) %MON trcstat_ptracer2z_max        =   2.1524437200902768E-01
(PID.TID 0000.0001) %MON trcstat_ptracer2z_min        =   2.8591730847311744E-07
(PID.TID 0000.0001) %MON trcstat_ptracer2z_mean       =   2.1906089086682007E-04
(PID.TID 0000.0001) %MON trcstat_ptracer2z_sd         =   2.0387281159188865E-03
(PID.TID 0000.0001) %MON trcstat_ptracer2z_del2       =   2.7888025449594294E-06
(PID.TID 0000.0001) %MON trcstat_ptracer2A_max        =   2.1548062614497310E-01
(PID.TID 0000.0001) %MON trcstat_ptracer2A_min        =   1.3581831691894426E-07
(PID.TID 0000.0001) %MON trcstat_ptracer2A_mean       =   2.5038914873243777E-04
(PID.TID 0000.0001) %MON trcstat_ptracer2A_sd         =   2.2305052661751369E-03
(PID.TID 0000.0001) %MON trcstat_ptracer2A_del2       =   2.9716007828442603E-06
(PID.TID 0000.0001) %MON trcstat_ptracer2B_max        =   2.1505179312897937E-01
(PID.TID 0000.0001) %MON trcstat_ptracer2B_min        =   2.1713373793500890E-07
(PID.TID 0000.0001) %MON trcstat_ptracer2B_mean       =   2.4333761379257221E-04
(PID.TID 0000.0001) %MON trcstat_ptracer2B_sd         =   2.1861668269496605E-03
(PID.TID 0000.0001) %MON trcstat_ptracer2B_del2       =   2.9241330390880463E-06
(PID.TID 0000.0001) %MON trcstat_ptracer2C_max        =   2.1465378634815216E-01
(PID.TID 0000.0001) %MON trcstat_ptracer2C_min        =   3.7241472112204899E-07
(PID.TID 0000.0001) %MON trcstat_ptracer2C_mean       =   2.3598155089531609E-04
(PID.TID 0000.0001) %MON trcstat_ptracer2C_sd         =   2.1393408573549422E-03
(PID.TID 0000.0001) %MON trcstat_ptracer2C_del2       =   2.8735815879283160E-06
(PID.TID 0000.0001) %MON trcstat_ptracer2D_max        =   2.1440024905142449E-01
(PID.TID 0000.0001) %MON trcstat_ptracer2D_min        =   4.7719344605711036E-07
(PID.TID 0000.0001) %MON trcstat_ptracer2D_mean       =   2.2835162408479530E-04
(PID.TID 0000.0001) %MON trcstat_ptracer2D_sd         =   2.0899923514354686E-03
(PID.TID 0000.0001) %MON trcstat_ptracer2D_del2       =   2.8196209719602779E-06
(PID.TID 0000.0001) // =======================================================
(PID.TID 0000.0001) // End MONITOR ptracers field statistics
(PID.TID 0000.0001) // =======================================================
 Compute Stats, Diag. #   3209  PP        vol(   0 ): 1.326E+18  Parms: SM P    MR      
 Compute Stats, Diag. #   3210  Nfix      vol(   0 ): 1.326E+18  Parms: SM P    MR      
 Compute Stats, Diag. #   3211  Denit     vol(   0 ): 1.326E+18  Parms: SM P    MR      
(PID.TID 0000.0001) // =======================================================
(PID.TID 0000.0001) // Begin MONITOR EXF statistics
(PID.TID 0000.0001) // =======================================================
(PID.TID 0000.0001) %MON exf_tsnumber                 =                     3
(PID.TID 0000.0001) %MON exf_time_sec                 =   3.2400000000000000E+04
(PID.TID 0000.0001) %MON exf_ustress_max              =   0.0000000000000000E+00
(PID.TID 0000.0001) %MON exf_ustress_min              =   0.0000000000000000E+00
(PID.TID 0000.0001) %MON exf_ustress_mean             =   0.0000000000000000E+00
(PID.TID 0000.0001) %MON exf_ustress_sd               =   0.0000000000000000E+00
(PID.TID 0000.0001) %MON exf_ustress_del2             =   0.0000000000000000E+00
(PID.TID 0000.0001) %MON exf_vstress_max              =   0.0000000000000000E+00
(PID.TID 0000.0001) %MON exf_vstress_min              =   0.0000000000000000E+00
(PID.TID 0000.0001) %MON exf_vstress_mean             =   0.0000000000000000E+00
(PID.TID 0000.0001) %MON exf_vstress_sd               =   0.0000000000000000E+00
(PID.TID 0000.0001) %MON exf_vstress_del2             =   0.0000000000000000E+00
(PID.TID 0000.0001) %MON exf_hflux_max                =   0.0000000000000000E+00
(PID.TID 0000.0001) %MON exf_hflux_min                =   0.0000000000000000E+00
(PID.TID 0000.0001) %MON exf_hflux_mean               =   0.0000000000000000E+00
(PID.TID 0000.0001) %MON exf_hflux_sd                 =   0.0000000000000000E+00
(PID.TID 0000.0001) %MON exf_hflux_del2               =   0.0000000000000000E+00
(PID.TID 0000.0001) %MON exf_sflux_max                =   0.0000000000000000E+00
(PID.TID 0000.0001) %MON exf_sflux_min                =   0.0000000000000000E+00
(PID.TID 0000.0001) %MON exf_sflux_mean               =   0.0000000000000000E+00
(PID.TID 0000.0001) %MON exf_sflux_sd                 =   0.0000000000000000E+00
(PID.TID 0000.0001) %MON exf_sflux_del2               =   0.0000000000000000E+00
(PID.TID 0000.0001) %MON exf_uwind_max                =   0.0000000000000000E+00
(PID.TID 0000.0001) %MON exf_uwind_min                =   0.0000000000000000E+00
(PID.TID 0000.0001) %MON exf_uwind_mean               =   0.0000000000000000E+00
(PID.TID 0000.0001) %MON exf_uwind_sd                 =   0.0000000000000000E+00
(PID.TID 0000.0001) %MON exf_uwind_del2               =   0.0000000000000000E+00
(PID.TID 0000.0001) %MON exf_vwind_max                =   0.0000000000000000E+00
(PID.TID 0000.0001) %MON exf_vwind_min                =   0.0000000000000000E+00
(PID.TID 0000.0001) %MON exf_vwind_mean               =   0.0000000000000000E+00
(PID.TID 0000.0001) %MON exf_vwind_sd                 =   0.0000000000000000E+00
(PID.TID 0000.0001) %MON exf_vwind_del2               =   0.0000000000000000E+00
(PID.TID 0000.0001) %MON exf_wspeed_max               =   0.0000000000000000E+00
(PID.TID 0000.0001) %MON exf_wspeed_min               =   0.0000000000000000E+00
(PID.TID 0000.0001) %MON exf_wspeed_mean              =   0.0000000000000000E+00
(PID.TID 0000.0001) %MON exf_wspeed_sd                =   0.0000000000000000E+00
(PID.TID 0000.0001) %MON exf_wspeed_del2              =   0.0000000000000000E+00
(PID.TID 0000.0001) %MON exf_evap_max                 =   0.0000000000000000E+00
(PID.TID 0000.0001) %MON exf_evap_min                 =   0.0000000000000000E+00
(PID.TID 0000.0001) %MON exf_evap_mean                =   0.0000000000000000E+00
(PID.TID 0000.0001) %MON exf_evap_sd                  =   0.0000000000000000E+00
(PID.TID 0000.0001) %MON exf_evap_del2                =   0.0000000000000000E+00
(PID.TID 0000.0001) // =======================================================
(PID.TID 0000.0001) // End MONITOR EXF statistics
(PID.TID 0000.0001) // =======================================================
(PID.TID 0000.0001) // =======================================================
(PID.TID 0000.0001) // Begin MONITOR dynamic field statistics
(PID.TID 0000.0001) // =======================================================
(PID.TID 0000.0001) %MON time_tsnumber                =                     4
(PID.TID 0000.0001) %MON time_secondsf                =   4.3200000000000000E+04
(PID.TID 0000.0001) %MON dynstat_eta_max              =   0.0000000000000000E+00
(PID.TID 0000.0001) %MON dynstat_eta_min              =   0.0000000000000000E+00
(PID.TID 0000.0001) %MON dynstat_eta_mean             =   0.0000000000000000E+00
(PID.TID 0000.0001) %MON dynstat_eta_sd               =   0.0000000000000000E+00
(PID.TID 0000.0001) %MON dynstat_eta_del2             =   0.0000000000000000E+00
(PID.TID 0000.0001) %MON dynstat_uvel_max             =   8.7074633687734604E-01
(PID.TID 0000.0001) %MON dynstat_uvel_min             =  -7.3878312110900879E-01
(PID.TID 0000.0001) %MON dynstat_uvel_mean            =   2.2814065625190371E-03
(PID.TID 0000.0001) %MON dynstat_uvel_sd              =   2.3299240079840623E-02
(PID.TID 0000.0001) %MON dynstat_uvel_del2            =   2.7547322281352395E-05
(PID.TID 0000.0001) %MON dynstat_vvel_max             =   1.0058413743972778E+00
(PID.TID 0000.0001) %MON dynstat_vvel_min             =  -1.1740059470757842E+00
(PID.TID 0000.0001) %MON dynstat_vvel_mean            =  -1.3196124565502870E-05
(PID.TID 0000.0001) %MON dynstat_vvel_sd              =   1.2249356648075447E-02
(PID.TID 0000.0001) %MON dynstat_vvel_del2            =   2.5325650314171608E-05
(PID.TID 0000.0001) %MON dynstat_wvel_max             =   7.5976289554091636E-04
(PID.TID 0000.0001) %MON dynstat_wvel_min             =  -6.4643200312275440E-04
(PID.TID 0000.0001) %MON dynstat_wvel_mean            =   2.4227459341402044E-14
(PID.TID 0000.0001) %MON dynstat_wvel_sd              =   1.1769360645062244E-05
(PID.TID 0000.0001) %MON dynstat_wvel_del2            =   2.1562404193923556E-08
(PID.TID 0000.0001) %MON dynstat_theta_max            =   3.1915518999099731E+01
(PID.TID 0000.0001) %MON dynstat_theta_min            =  -2.6553137600421906E+00
(PID.TID 0000.0001) %MON dynstat_theta_mean           =   3.6060311887023979E+00
(PID.TID 0000.0001) %MON dynstat_theta_sd             =   4.4509115657241498E+00
(PID.TID 0000.0001) %MON dynstat_theta_del2           =   3.9949214702955708E-04
(PID.TID 0000.0001) %MON dynstat_salt_max             =   3.9527606964111328E+01
(PID.TID 0000.0001) %MON dynstat_salt_min             =   2.6703523635864258E+01
(PID.TID 0000.0001) %MON dynstat_salt_mean            =   3.4722018340635145E+01
(PID.TID 0000.0001) %MON dynstat_salt_sd              =   3.6479287973535768E-01
(PID.TID 0000.0001) %MON dynstat_salt_del2            =   7.5925026753581341E-05
(PID.TID 0000.0001) %MON dynstat_sst_max              =   3.1915518999099731E+01
(PID.TID 0000.0001) %MON dynstat_sst_min              =  -1.9896744489669800E+00
(PID.TID 0000.0001) %MON dynstat_sst_mean             =   1.9145589998657087E+01
(PID.TID 0000.0001) %MON dynstat_sst_sd               =   9.5373560712488707E+00
(PID.TID 0000.0001) %MON dynstat_sst_del2             =   2.4310046073318069E-03
(PID.TID 0000.0001) %MON dynstat_sss_max              =   3.9527606964111328E+01
(PID.TID 0000.0001) %MON dynstat_sss_min              =   2.6703523635864258E+01
(PID.TID 0000.0001) %MON dynstat_sss_mean             =   3.4859354483906252E+01
(PID.TID 0000.0001) %MON dynstat_sss_sd               =   1.0772987818795741E+00
(PID.TID 0000.0001) %MON dynstat_sss_del2             =   6.4738030269893311E-04
(PID.TID 0000.0001) %MON forcing_qnet_max             =   0.0000000000000000E+00
(PID.TID 0000.0001) %MON forcing_qnet_min             =   0.0000000000000000E+00
(PID.TID 0000.0001) %MON forcing_qnet_mean            =   0.0000000000000000E+00
(PID.TID 0000.0001) %MON forcing_qnet_sd              =   0.0000000000000000E+00
(PID.TID 0000.0001) %MON forcing_qnet_del2            =   0.0000000000000000E+00
(PID.TID 0000.0001) %MON forcing_qsw_max              =   0.0000000000000000E+00
(PID.TID 0000.0001) %MON forcing_qsw_min              =   0.0000000000000000E+00
(PID.TID 0000.0001) %MON forcing_qsw_mean             =   0.0000000000000000E+00
(PID.TID 0000.0001) %MON forcing_qsw_sd               =   0.0000000000000000E+00
(PID.TID 0000.0001) %MON forcing_qsw_del2             =   0.0000000000000000E+00
(PID.TID 0000.0001) %MON forcing_empmr_max            =   0.0000000000000000E+00
(PID.TID 0000.0001) %MON forcing_empmr_min            =   0.0000000000000000E+00
(PID.TID 0000.0001) %MON forcing_empmr_mean           =   0.0000000000000000E+00
(PID.TID 0000.0001) %MON forcing_empmr_sd             =   0.0000000000000000E+00
(PID.TID 0000.0001) %MON forcing_empmr_del2           =   0.0000000000000000E+00
(PID.TID 0000.0001) %MON forcing_fu_max               =   0.0000000000000000E+00
(PID.TID 0000.0001) %MON forcing_fu_min               =   0.0000000000000000E+00
(PID.TID 0000.0001) %MON forcing_fu_mean              =   0.0000000000000000E+00
(PID.TID 0000.0001) %MON forcing_fu_sd                =   0.0000000000000000E+00
(PID.TID 0000.0001) %MON forcing_fu_del2              =   0.0000000000000000E+00
(PID.TID 0000.0001) %MON forcing_fv_max               =   0.0000000000000000E+00
(PID.TID 0000.0001) %MON forcing_fv_min               =   0.0000000000000000E+00
(PID.TID 0000.0001) %MON forcing_fv_mean              =   0.0000000000000000E+00
(PID.TID 0000.0001) %MON forcing_fv_sd                =   0.0000000000000000E+00
(PID.TID 0000.0001) %MON forcing_fv_del2              =   0.0000000000000000E+00
(PID.TID 0000.0001) %MON advcfl_uvel_max              =   1.0936717750096733E-01
(PID.TID 0000.0001) %MON advcfl_vvel_max              =   1.1404526336257088E-01
(PID.TID 0000.0001) %MON advcfl_wvel_max              =   3.6468618985963991E-01
(PID.TID 0000.0001) %MON advcfl_W_hf_max              =   4.1027196359209483E-01
(PID.TID 0000.0001) %MON pe_b_mean                    =   0.0000000000000000E+00
(PID.TID 0000.0001) %MON ke_max                       =   6.9872171825417395E-01
(PID.TID 0000.0001) %MON ke_mean                      =   3.3476980871450493E-04
(PID.TID 0000.0001) %MON ke_vol                       =   1.3258927395735470E+18
(PID.TID 0000.0001) %MON vort_r_min                   =  -1.1533158271791189E-05
(PID.TID 0000.0001) %MON vort_r_max                   =   1.2703322554286164E-05
(PID.TID 0000.0001) %MON vort_a_mean                  =  -2.1443554656117779E-05
(PID.TID 0000.0001) %MON vort_a_sd                    =   7.3250394401202837E-05
(PID.TID 0000.0001) %MON vort_p_mean                  =  -2.3136237714787806E-05
(PID.TID 0000.0001) %MON vort_p_sd                    =   8.5528062235591828E-05
(PID.TID 0000.0001) %MON surfExpan_theta_mean         =  -1.0748087439884701E-07
(PID.TID 0000.0001) %MON surfExpan_salt_mean          =   9.0451251760431549E-09
(PID.TID 0000.0001) // =======================================================
(PID.TID 0000.0001) // End MONITOR dynamic field statistics
(PID.TID 0000.0001) // =======================================================
(PID.TID 0000.0001) // =======================================================
(PID.TID 0000.0001) // Begin MONITOR ptracer field statistics
(PID.TID 0000.0001) // =======================================================
(PID.TID 0000.0001) %MON trcstat_ptracer01_max        =   2.4044997838501927E+03
(PID.TID 0000.0001) %MON trcstat_ptracer01_min        =   1.8503344026810412E+03
(PID.TID 0000.0001) %MON trcstat_ptracer01_mean       =   2.2546518404094450E+03
(PID.TID 0000.0001) %MON trcstat_ptracer01_sd         =   7.8572210867533812E+01
(PID.TID 0000.0001) %MON trcstat_ptracer01_del2       =   7.3280950429260531E-03
(PID.TID 0000.0001) %MON trcstat_ptracer02_max        =   2.1686491965888841E+00
(PID.TID 0000.0001) %MON trcstat_ptracer02_min        =   1.0787799790293908E-09
(PID.TID 0000.0001) %MON trcstat_ptracer02_mean       =   1.9609962415299328E-03
(PID.TID 0000.0001) %MON trcstat_ptracer02_sd         =   1.8170705670734977E-02
(PID.TID 0000.0001) %MON trcstat_ptracer02_del2       =   2.8234754274199212E-05
(PID.TID 0000.0001) %MON trcstat_ptracer03_max        =   3.0205718316136081E+00
(PID.TID 0000.0001) %MON trcstat_ptracer03_min        =  -1.0188908798841251E-03
(PID.TID 0000.0001) %MON trcstat_ptracer03_mean       =   5.6849314157761789E-03
(PID.TID 0000.0001) %MON trcstat_ptracer03_sd         =   2.3490713150350170E-02
(PID.TID 0000.0001) %MON trcstat_ptracer03_del2       =   2.8247045165943789E-05
(PID.TID 0000.0001) %MON trcstat_ptracer04_max        =   5.0588641599526611E+01
(PID.TID 0000.0001) %MON trcstat_ptracer04_min        =   4.1561030980573257E-03
(PID.TID 0000.0001) %MON trcstat_ptracer04_mean       =   3.1007584412032337E+01
(PID.TID 0000.0001) %MON trcstat_ptracer04_sd         =   9.0050249022091826E+00
(PID.TID 0000.0001) %MON trcstat_ptracer04_del2       =   7.2876611880490401E-04
(PID.TID 0000.0001) %MON trcstat_ptracer05_max        =   3.7931403838118438E+00
(PID.TID 0000.0001) %MON trcstat_ptracer05_min        =   2.0432795021667727E-02
(PID.TID 0000.0001) %MON trcstat_ptracer05_mean       =   2.1762259686150922E+00
(PID.TID 0000.0001) %MON trcstat_ptracer05_sd         =   6.4445787043181257E-01
(PID.TID 0000.0001) %MON trcstat_ptracer05_del2       =   4.7922248619121987E-05
(PID.TID 0000.0001) %MON trcstat_ptracer06_max        =   2.6048370456264098E+02
(PID.TID 0000.0001) %MON trcstat_ptracer06_min        =   3.0623975801678649E-01
(PID.TID 0000.0001) %MON trcstat_ptracer06_mean       =   9.0810433636915192E+01
(PID.TID 0000.0001) %MON trcstat_ptracer06_sd         =   5.2139018899414012E+01
(PID.TID 0000.0001) %MON trcstat_ptracer06_del2       =   1.4890445479105179E-03
(PID.TID 0000.0001) %MON trcstat_ptracer07_max        =   1.0974585372839111E-03
(PID.TID 0000.0001) %MON trcstat_ptracer07_min        =   1.3217426000010841E-07
(PID.TID 0000.0001) %MON trcstat_ptracer07_mean       =   6.2098698678441722E-04
(PID.TID 0000.0001) %MON trcstat_ptracer07_sd         =   1.7817530581984220E-04
(PID.TID 0000.0001) %MON trcstat_ptracer07_del2       =   6.1055573281844496E-08
(PID.TID 0000.0001) %MON trcstat_ptracer08_max        =   5.1878328406203600E+01
(PID.TID 0000.0001) %MON trcstat_ptracer08_min        =  -2.1031110099673072E-06
(PID.TID 0000.0001) %MON trcstat_ptracer08_mean       =   2.2493068722340495E-01
(PID.TID 0000.0001) %MON trcstat_ptracer08_sd         =   1.3151823668502296E+00
(PID.TID 0000.0001) %MON trcstat_ptracer08_del2       =   1.2586271777327664E-03
(PID.TID 0000.0001) %MON trcstat_ptracer09_max        =   7.1999881422359753E+00
(PID.TID 0000.0001) %MON trcstat_ptracer09_min        =  -2.2209844029578699E-07
(PID.TID 0000.0001) %MON trcstat_ptracer09_mean       =   3.0213599674535695E-02
(PID.TID 0000.0001) %MON trcstat_ptracer09_sd         =   1.7708717277349748E-01
(PID.TID 0000.0001) %MON trcstat_ptracer09_del2       =   1.6994432712332742E-04
(PID.TID 0000.0001) %MON trcstat_ptracer10_max        =   4.3234767342472957E-01
(PID.TID 0000.0001) %MON trcstat_ptracer10_min        =  -1.4732774376353483E-08
(PID.TID 0000.0001) %MON trcstat_ptracer10_mean       =   1.8747079973016037E-03
(PID.TID 0000.0001) %MON trcstat_ptracer10_sd         =   1.0961155134245859E-02
(PID.TID 0000.0001) %MON trcstat_ptracer10_del2       =   1.0489001654313728E-05
(PID.TID 0000.0001) %MON trcstat_ptracer11_max        =   4.9912003561230025E-04
(PID.TID 0000.0001) %MON trcstat_ptracer11_min        =  -1.5284152911171166E-11
(PID.TID 0000.0001) %MON trcstat_ptracer11_mean       =   1.9014676936858741E-06
(PID.TID 0000.0001) %MON trcstat_ptracer11_sd         =   1.1178636727603257E-05
(PID.TID 0000.0001) %MON trcstat_ptracer11_del2       =   1.0791058792911616E-08
(PID.TID 0000.0001) %MON trcstat_ptracer12_max        =   1.3305770556195673E+03
(PID.TID 0000.0001) %MON trcstat_ptracer12_min        =   1.0136697082301842E-04
(PID.TID 0000.0001) %MON trcstat_ptracer12_mean       =   1.6607713754280826E-01
(PID.TID 0000.0001) %MON trcstat_ptracer12_sd         =   2.3015289411441056E+00
(PID.TID 0000.0001) %MON trcstat_ptracer12_del2       =   8.9538430986360606E-04
(PID.TID 0000.0001) %MON trcstat_ptracer13_max        =   1.8790427392152569E+02
(PID.TID 0000.0001) %MON trcstat_ptracer13_min        =   1.3540211720505901E-05
(PID.TID 0000.0001) %MON trcstat_ptracer13_mean       =   2.2482930260500977E-02
(PID.TID 0000.0001) %MON trcstat_ptracer13_sd         =   3.2758811201706584E-01
(PID.TID 0000.0001) %MON trcstat_ptracer13_del2       =   1.2301796341469181E-04
(PID.TID 0000.0001) %MON trcstat_ptracer14_max        =   1.1089938981505988E+01
(PID.TID 0000.0001) %MON trcstat_ptracer14_min        =   8.4589295833736242E-07
(PID.TID 0000.0001) %MON trcstat_ptracer14_mean       =   1.3840033052523900E-03
(PID.TID 0000.0001) %MON trcstat_ptracer14_sd         =   1.9181099509705951E-02
(PID.TID 0000.0001) %MON trcstat_ptracer14_del2       =   7.4615571742965544E-06
(PID.TID 0000.0001) %MON trcstat_ptracer15_max        =   1.2251442375566603E+02
(PID.TID 0000.0001) %MON trcstat_ptracer15_min        =   5.7838942037635748E-07
(PID.TID 0000.0001) %MON trcstat_ptracer15_mean       =   1.3520960986203739E-01
(PID.TID 0000.0001) %MON trcstat_ptracer15_sd         =   3.9836230166049735E-01
(PID.TID 0000.0001) %MON trcstat_ptracer15_del2       =   2.6640712018650617E-04
(PID.TID 0000.0001) %MON trcstat_ptracer16_max        =   1.2398038051918324E-02
(PID.TID 0000.0001) %MON trcstat_ptracer16_min        =   8.4741275482249670E-10
(PID.TID 0000.0001) %MON trcstat_ptracer16_mean       =   1.4263853085631984E-06
(PID.TID 0000.0001) %MON trcstat_ptracer16_sd         =   2.1779646146041209E-05
(PID.TID 0000.0001) %MON trcstat_ptracer16_del2       =   7.9413914551366556E-09
(PID.TID 0000.0001) %MON trcstat_ptracer17_max        =   3.9037462140463009E+02
(PID.TID 0000.0001) %MON trcstat_ptracer17_min        =   4.8272401643380573E-07
(PID.TID 0000.0001) %MON trcstat_ptracer17_mean       =   2.2828625343710141E-01
(PID.TID 0000.0001) %MON trcstat_ptracer17_sd         =   1.0004968909277441E+00
(PID.TID 0000.0001) %MON trcstat_ptracer17_del2       =   1.5404461797919075E-03
(PID.TID 0000.0001) %MON trcstat_ptracer18_max        =   2.4565616568233158E+03
(PID.TID 0000.0001) %MON trcstat_ptracer18_min        =   2.1809544928476466E+03
(PID.TID 0000.0001) %MON trcstat_ptracer18_mean       =   2.3632520430591840E+03
(PID.TID 0000.0001) %MON trcstat_ptracer18_sd         =   4.2538013117907880E+01
(PID.TID 0000.0001) %MON trcstat_ptracer18_del2       =   2.4328355230122437E-03
(PID.TID 0000.0001) %MON trcstat_ptracer19_max        =   4.0013424228508956E+02
(PID.TID 0000.0001) %MON trcstat_ptracer19_min        =   3.1135863587428445E+00
(PID.TID 0000.0001) %MON trcstat_ptracer19_mean       =   1.7468776380464448E+02
(PID.TID 0000.0001) %MON trcstat_ptracer19_sd         =   6.2901929808609182E+01
(PID.TID 0000.0001) %MON trcstat_ptracer19_del2       =   5.0627880323546280E-03
(PID.TID 0000.0001) %MON trcstat_ptracer20_max        =   7.3357311075496678E-01
(PID.TID 0000.0001) %MON trcstat_ptracer20_min        =   8.7235050514302507E-08
(PID.TID 0000.0001) %MON trcstat_ptracer20_mean       =   1.0573253036135852E-03
(PID.TID 0000.0001) %MON trcstat_ptracer20_sd         =   8.7754867332139348E-03
(PID.TID 0000.0001) %MON trcstat_ptracer20_del2       =   1.1735113494859810E-05
(PID.TID 0000.0001) %MON trcstat_ptracer21_max        =   7.4046608029285432E-01
(PID.TID 0000.0001) %MON trcstat_ptracer21_min        =   9.1903961089169783E-08
(PID.TID 0000.0001) %MON trcstat_ptracer21_mean       =   1.0575302354079471E-03
(PID.TID 0000.0001) %MON trcstat_ptracer21_sd         =   8.7821493954415141E-03
(PID.TID 0000.0001) %MON trcstat_ptracer21_del2       =   1.1764648037095654E-05
(PID.TID 0000.0001) %MON trcstat_ptracer22_max        =   7.4628631198714435E-01
(PID.TID 0000.0001) %MON trcstat_ptracer22_min        =   9.8654502828630150E-08
(PID.TID 0000.0001) %MON trcstat_ptracer22_mean       =   1.0577003834943974E-03
(PID.TID 0000.0001) %MON trcstat_ptracer22_sd         =   8.7875162773341370E-03
(PID.TID 0000.0001) %MON trcstat_ptracer22_del2       =   1.1788672895154991E-05
(PID.TID 0000.0001) %MON trcstat_ptracer23_max        =   7.5122587306853228E-01
(PID.TID 0000.0001) %MON trcstat_ptracer23_min        =   1.0885231467518430E-07
(PID.TID 0000.0001) %MON trcstat_ptracer23_mean       =   1.0578416607310251E-03
(PID.TID 0000.0001) %MON trcstat_ptracer23_sd         =   8.7917291610027388E-03
(PID.TID 0000.0001) %MON trcstat_ptracer23_del2       =   1.1807818400768252E-05
(PID.TID 0000.0001) %MON trcstat_ptracer24_max        =   7.5449662980447404E-02
(PID.TID 0000.0001) %MON trcstat_ptracer24_min        =   1.2559115736463500E-08
(PID.TID 0000.0001) %MON trcstat_ptracer24_mean       =   1.0579149154228473E-04
(PID.TID 0000.0001) %MON trcstat_ptracer24_sd         =   8.7934865685021632E-04
(PID.TID 0000.0001) %MON trcstat_ptracer24_del2       =   1.1816833425639475E-06
(PID.TID 0000.0001) %MON trcstat_ptracer25_max        =   7.5449662980447418E-01
(PID.TID 0000.0001) %MON trcstat_ptracer25_min        =   1.2559115736457771E-07
(PID.TID 0000.0001) %MON trcstat_ptracer25_mean       =   1.0579149154228457E-03
(PID.TID 0000.0001) %MON trcstat_ptracer25_sd         =   8.7934865685021582E-03
(PID.TID 0000.0001) %MON trcstat_ptracer25_del2       =   1.1816833425639501E-05
(PID.TID 0000.0001) %MON trcstat_ptracer26_max        =   1.0451166052445897E+00
(PID.TID 0000.0001) %MON trcstat_ptracer26_min        =   1.5192330200230993E-07
(PID.TID 0000.0001) %MON trcstat_ptracer26_mean       =   1.3373132832721411E-03
(PID.TID 0000.0001) %MON trcstat_ptracer26_sd         =   1.0659400354104162E-02
(PID.TID 0000.0001) %MON trcstat_ptracer26_del2       =   1.3705454281672262E-05
(PID.TID 0000.0001) %MON trcstat_ptracer27_max        =   7.5412369504618229E-02
(PID.TID 0000.0001) %MON trcstat_ptracer27_min        =   1.5131805442572280E-08
(PID.TID 0000.0001) %MON trcstat_ptracer27_mean       =   1.0577075074016937E-04
(PID.TID 0000.0001) %MON trcstat_ptracer27_sd         =   8.7868557903497929E-04
(PID.TID 0000.0001) %MON trcstat_ptracer27_del2       =   1.1794673193117031E-06
(PID.TID 0000.0001) %MON trcstat_ptracer28_max        =   7.5412369504618226E-01
(PID.TID 0000.0001) %MON trcstat_ptracer28_min        =   1.5131805442566385E-07
(PID.TID 0000.0001) %MON trcstat_ptracer28_mean       =   1.0577075074016907E-03
(PID.TID 0000.0001) %MON trcstat_ptracer28_sd         =   8.7868557903497922E-03
(PID.TID 0000.0001) %MON trcstat_ptracer28_del2       =   1.1794673193117034E-05
(PID.TID 0000.0001) %MON trcstat_ptracer29_max        =   1.0115650055234602E+00
(PID.TID 0000.0001) %MON trcstat_ptracer29_min        =   1.8115388003311517E-07
(PID.TID 0000.0001) %MON trcstat_ptracer29_mean       =   1.3222242793677523E-03
(PID.TID 0000.0001) %MON trcstat_ptracer29_sd         =   1.0540696958537016E-02
(PID.TID 0000.0001) %MON trcstat_ptracer29_del2       =   1.3570493645357537E-05
(PID.TID 0000.0001) %MON trcstat_ptracer30_max        =   7.5827886927369401E-02
(PID.TID 0000.0001) %MON trcstat_ptracer30_min        =   1.9183597496359668E-08
(PID.TID 0000.0001) %MON trcstat_ptracer30_mean       =   1.0578494383444355E-04
(PID.TID 0000.0001) %MON trcstat_ptracer30_sd         =   8.7896714688972177E-04
(PID.TID 0000.0001) %MON trcstat_ptracer30_del2       =   1.1807553892534310E-06
(PID.TID 0000.0001) %MON trcstat_ptracer31_max        =   7.5827886927369370E-01
(PID.TID 0000.0001) %MON trcstat_ptracer31_min        =   1.9183597496353890E-07
(PID.TID 0000.0001) %MON trcstat_ptracer31_mean       =   1.0578494383444341E-03
(PID.TID 0000.0001) %MON trcstat_ptracer31_sd         =   8.7896714688972220E-03
(PID.TID 0000.0001) %MON trcstat_ptracer31_del2       =   1.1807553892534292E-05
(PID.TID 0000.0001) %MON trcstat_ptracer32_max        =   9.7274322797741142E-01
(PID.TID 0000.0001) %MON trcstat_ptracer32_min        =   1.9464308491510718E-07
(PID.TID 0000.0001) %MON trcstat_ptracer32_mean       =   1.3064813829301259E-03
(PID.TID 0000.0001) %MON trcstat_ptracer32_sd         =   1.0417550822044213E-02
(PID.TID 0000.0001) %MON trcstat_ptracer32_del2       =   1.3436533029780941E-05
(PID.TID 0000.0001) %MON trcstat_ptracer33_max        =   7.6205165452886942E-02
(PID.TID 0000.0001) %MON trcstat_ptracer33_min        =   2.0351982519397609E-08
(PID.TID 0000.0001) %MON trcstat_ptracer33_mean       =   1.0579678052149808E-04
(PID.TID 0000.0001) %MON trcstat_ptracer33_sd         =   8.7910464166876447E-04
(PID.TID 0000.0001) %MON trcstat_ptracer33_del2       =   1.1814945206330375E-06
(PID.TID 0000.0001) %MON trcstat_ptracer34_max        =   7.6205165452886925E-01
(PID.TID 0000.0001) %MON trcstat_ptracer34_min        =   2.0351982519367312E-07
(PID.TID 0000.0001) %MON trcstat_ptracer34_mean       =   1.0579678052149808E-03
(PID.TID 0000.0001) %MON trcstat_ptracer34_sd         =   8.7910464166876499E-03
(PID.TID 0000.0001) %MON trcstat_ptracer34_del2       =   1.1814945206330366E-05
(PID.TID 0000.0001) %MON trcstat_ptracer35_max        =   9.5481886435018681E-01
(PID.TID 0000.0001) %MON trcstat_ptracer35_min        =   2.1376498084176815E-07
(PID.TID 0000.0001) %MON trcstat_ptracer35_mean       =   1.2856765835435799E-03
(PID.TID 0000.0001) %MON trcstat_ptracer35_sd         =   1.0258413241688824E-02
(PID.TID 0000.0001) %MON trcstat_ptracer35_del2       =   1.3273172645795798E-05
(PID.TID 0000.0001) %MON trcstat_ptracer36_max        =   7.6563201524611768E-02
(PID.TID 0000.0001) %MON trcstat_ptracer36_min        =   2.1349516602804557E-08
(PID.TID 0000.0001) %MON trcstat_ptracer36_mean       =   1.0580667026639036E-04
(PID.TID 0000.0001) %MON trcstat_ptracer36_sd         =   8.7908407323842794E-04
(PID.TID 0000.0001) %MON trcstat_ptracer36_del2       =   1.1816526067621476E-06
(PID.TID 0000.0001) %MON trcstat_ptracer37_max        =   7.6563201524611768E-01
(PID.TID 0000.0001) %MON trcstat_ptracer37_min        =   2.1349516602796422E-07
(PID.TID 0000.0001) %MON trcstat_ptracer37_mean       =   1.0580667026639057E-03
(PID.TID 0000.0001) %MON trcstat_ptracer37_sd         =   8.7908407323842672E-03
(PID.TID 0000.0001) %MON trcstat_ptracer37_del2       =   1.1816526067621446E-05
(PID.TID 0000.0001) %MON trcstat_ptracer38_max        =   9.3828560448380227E-01
(PID.TID 0000.0001) %MON trcstat_ptracer38_min        =   2.4104696293081964E-07
(PID.TID 0000.0001) %MON trcstat_ptracer38_mean       =   1.2631134162184106E-03
(PID.TID 0000.0001) %MON trcstat_ptracer38_sd         =   1.0091541507320998E-02
(PID.TID 0000.0001) %MON trcstat_ptracer38_del2       =   1.3101679283913905E-05
(PID.TID 0000.0001) %MON trcstat_ptracer39_max        =   7.6930749537593968E-01
(PID.TID 0000.0001) %MON trcstat_ptracer39_min        =   2.4073893196243124E-07
(PID.TID 0000.0001) %MON trcstat_ptracer39_mean       =   1.0581610296292654E-03
(PID.TID 0000.0001) %MON trcstat_ptracer39_sd         =   8.7891082873940776E-03
(PID.TID 0000.0001) %MON trcstat_ptracer39_del2       =   1.1812598351434001E-05
(PID.TID 0000.0001) %MON trcstat_ptracer40_max        =   9.2231288289606994E-01
(PID.TID 0000.0001) %MON trcstat_ptracer40_min        =   2.7585081576189022E-07
(PID.TID 0000.0001) %MON trcstat_ptracer40_mean       =   1.2419641058334721E-03
(PID.TID 0000.0001) %MON trcstat_ptracer40_sd         =   9.9396726994667450E-03
(PID.TID 0000.0001) %MON trcstat_ptracer40_del2       =   1.2950260814160985E-05
(PID.TID 0000.0001) %MON trcstat_ptracer41_max        =   9.0260679378840258E-01
(PID.TID 0000.0001) %MON trcstat_ptracer41_min        =   3.2079379852941361E-07
(PID.TID 0000.0001) %MON trcstat_ptracer41_mean       =   1.2220876540594270E-03
(PID.TID 0000.0001) %MON trcstat_ptracer41_sd         =   9.7941028618854890E-03
(PID.TID 0000.0001) %MON trcstat_ptracer41_del2       =   1.2785520110621943E-05
(PID.TID 0000.0001) %MON trcstat_ptracer42_max        =   8.8126987468827811E-01
(PID.TID 0000.0001) %MON trcstat_ptracer42_min        =   3.8420907861077260E-07
(PID.TID 0000.0001) %MON trcstat_ptracer42_mean       =   1.2036719704104297E-03
(PID.TID 0000.0001) %MON trcstat_ptracer42_sd         =   9.6577715369966944E-03
(PID.TID 0000.0001) %MON trcstat_ptracer42_del2       =   1.2622783228539942E-05
(PID.TID 0000.0001) %MON trcstat_ptracer43_max        =   8.5783474953373051E-01
(PID.TID 0000.0001) %MON trcstat_ptracer43_min        =   4.8234384123898402E-07
(PID.TID 0000.0001) %MON trcstat_ptracer43_mean       =   1.1867201717044419E-03
(PID.TID 0000.0001) %MON trcstat_ptracer43_sd         =   9.5287739244347466E-03
(PID.TID 0000.0001) %MON trcstat_ptracer43_del2       =   1.2459174610425217E-05
(PID.TID 0000.0001) %MON trcstat_ptracer44_max        =   7.9458188461944423E-01
(PID.TID 0000.0001) %MON trcstat_ptracer44_min        =   7.7509567389559771E-08
(PID.TID 0000.0001) %MON trcstat_ptracer44_mean       =   1.0980886498967470E-03
(PID.TID 0000.0001) %MON trcstat_ptracer44_sd         =   9.0886120093168453E-03
(PID.TID 0000.0001) %MON trcstat_ptracer44_del2       =   1.2231818111299216E-05
(PID.TID 0000.0001) %MON trcstat_ptracer45_max        =   7.9427949162063016E-01
(PID.TID 0000.0001) %MON trcstat_ptracer45_min        =   7.7509556726072925E-08
(PID.TID 0000.0001) %MON trcstat_ptracer45_mean       =   1.0980796044078350E-03
(PID.TID 0000.0001) %MON trcstat_ptracer45_sd         =   9.0882994277478261E-03
(PID.TID 0000.0001) %MON trcstat_ptracer45_del2       =   1.2230427837224227E-05
(PID.TID 0000.0001) %MON trcstat_ptracer46_max        =   7.9402816574377211E-01
(PID.TID 0000.0001) %MON trcstat_ptracer46_min        =   7.7509547898422722E-08
(PID.TID 0000.0001) %MON trcstat_ptracer46_mean       =   1.0980721083206676E-03
(PID.TID 0000.0001) %MON trcstat_ptracer46_sd         =   9.0880402933681582E-03
(PID.TID 0000.0001) %MON trcstat_ptracer46_del2       =   1.2229274637592676E-05
(PID.TID 0000.0001) %MON trcstat_ptracer47_max        =   7.9381931877085732E-01
(PID.TID 0000.0001) %MON trcstat_ptracer47_min        =   7.7509540591049872E-08
(PID.TID 0000.0001) %MON trcstat_ptracer47_mean       =   1.0980658965593594E-03
(PID.TID 0000.0001) %MON trcstat_ptracer47_sd         =   9.0878254799582076E-03
(PID.TID 0000.0001) %MON trcstat_ptracer47_del2       =   1.2228318025582552E-05
(PID.TID 0000.0001) %MON trcstat_ptracer48_max        =   7.9377861346012091E-01
(PID.TID 0000.0001) %MON trcstat_ptracer48_min        =   7.7509540485305260E-08
(PID.TID 0000.0001) %MON trcstat_ptracer48_mean       =   1.0980653799951921E-03
(PID.TID 0000.0001) %MON trcstat_ptracer48_sd         =   9.0878019893160054E-03
(PID.TID 0000.0001) %MON trcstat_ptracer48_del2       =   1.2228190614732012E-05
(PID.TID 0000.0001) %MON trcstat_ptracer49_max        =   7.9481465766500758E-01
(PID.TID 0000.0001) %MON trcstat_ptracer49_min        =   7.7509606869023071E-08
(PID.TID 0000.0001) %MON trcstat_ptracer49_mean       =   1.0981142494878690E-03
(PID.TID 0000.0001) %MON trcstat_ptracer49_sd         =   9.0893116526150203E-03
(PID.TID 0000.0001) %MON trcstat_ptracer49_del2       =   1.2234396773112457E-05
(PID.TID 0000.0001) %MON trcstat_ptracer50_max        =   7.9446473066366918E-01
(PID.TID 0000.0001) %MON trcstat_ptracer50_min        =   7.7509589394417228E-08
(PID.TID 0000.0001) %MON trcstat_ptracer50_mean       =   1.0981005715445867E-03
(PID.TID 0000.0001) %MON trcstat_ptracer50_sd         =   9.0888717847417439E-03
(PID.TID 0000.0001) %MON trcstat_ptracer50_del2       =   1.2232524084557016E-05
(PID.TID 0000.0001) %MON trcstat_ptracer51_max        =   7.9417497542465942E-01
(PID.TID 0000.0001) %MON trcstat_ptracer51_min        =   7.7509574918267863E-08
(PID.TID 0000.0001) %MON trcstat_ptracer51_mean       =   1.0980892175662818E-03
(PID.TID 0000.0001) %MON trcstat_ptracer51_sd         =   9.0885071682219737E-03
(PID.TID 0000.0001) %MON trcstat_ptracer51_del2       =   1.2230972631272526E-05
(PID.TID 0000.0001) %MON trcstat_ptracer52_max        =   7.9393572828589121E-01
(PID.TID 0000.0001) %MON trcstat_ptracer52_min        =   7.7509562937716874E-08
(PID.TID 0000.0001) %MON trcstat_ptracer52_mean       =   1.0980798279589725E-03
(PID.TID 0000.0001) %MON trcstat_ptracer52_sd         =   9.0882057104684551E-03
(PID.TID 0000.0001) %MON trcstat_ptracer52_del2       =   1.2229690567882047E-05
(PID.TID 0000.0001) %MON trcstat_ptracer53_max        =   7.9368699021187816E-01
(PID.TID 0000.0001) %MON trcstat_ptracer53_min        =   7.7509548806708394E-08
(PID.TID 0000.0001) %MON trcstat_ptracer53_mean       =   1.0980693806123061E-03
(PID.TID 0000.0001) %MON trcstat_ptracer53_sd         =   9.0878746855070549E-03
(PID.TID 0000.0001) %MON trcstat_ptracer53_del2       =   1.2228310748292985E-05
(PID.TID 0000.0001) %MON trcstat_ptracer54_max        =   7.9309742762656776E-01
(PID.TID 0000.0001) %MON trcstat_ptracer54_min        =   7.7509514900491137E-08
(PID.TID 0000.0001) %MON trcstat_ptracer54_mean       =   1.0980446258047061E-03
(PID.TID 0000.0001) %MON trcstat_ptracer54_sd         =   9.0870853863771490E-03
(PID.TID 0000.0001) %MON trcstat_ptracer54_del2       =   1.2225036940462183E-05
(PID.TID 0000.0001) %MON trcstat_ptracer55_max        =   7.9304527927544333E-01
(PID.TID 0000.0001) %MON trcstat_ptracer55_min        =   7.7509513271638812E-08
(PID.TID 0000.0001) %MON trcstat_ptracer55_mean       =   1.0980430615489013E-03
(PID.TID 0000.0001) %MON trcstat_ptracer55_sd         =   9.0870322893449491E-03
(PID.TID 0000.0001) %MON trcstat_ptracer55_del2       =   1.2224793885955334E-05
(PID.TID 0000.0001) %MON trcstat_ptracer56_max        =   7.9300240088751350E-01
(PID.TID 0000.0001) %MON trcstat_ptracer56_min        =   7.7509511923599892E-08
(PID.TID 0000.0001) %MON trcstat_ptracer56_mean       =   1.0980417813061787E-03
(PID.TID 0000.0001) %MON trcstat_ptracer56_sd         =   9.0869887241429529E-03
(PID.TID 0000.0001) %MON trcstat_ptracer56_del2       =   1.2224594925612724E-05
(PID.TID 0000.0001) %MON trcstat_ptracer57_max        =   7.9296716503578013E-01
(PID.TID 0000.0001) %MON trcstat_ptracer57_min        =   7.7509510807924873E-08
(PID.TID 0000.0001) %MON trcstat_ptracer57_mean       =   1.0980407325944981E-03
(PID.TID 0000.0001) %MON trcstat_ptracer57_sd         =   9.0869529569356476E-03
(PID.TID 0000.0001) %MON trcstat_ptracer57_del2       =   1.2224431897764442E-05
(PID.TID 0000.0001) %MON trcstat_ptracer58_max        =   2.2872236807811883E-01
(PID.TID 0000.0001) %MON trcstat_ptracer58_min        =   2.8595800450550787E-08
(PID.TID 0000.0001) %MON trcstat_ptracer58_mean       =   3.3964285062423709E-04
(PID.TID 0000.0001) %MON trcstat_ptracer58_sd         =   2.8440004115359682E-03
(PID.TID 0000.0001) %MON trcstat_ptracer58_del2       =   3.7958581162397235E-06
(PID.TID 0000.0001) %MON trcstat_ptracer59_max        =   1.9064668949332417E-01
(PID.TID 0000.0001) %MON trcstat_ptracer59_min        =   2.5050351186968509E-08
(PID.TID 0000.0001) %MON trcstat_ptracer59_mean       =   2.8271398830619304E-04
(PID.TID 0000.0001) %MON trcstat_ptracer59_sd         =   2.3778538447643970E-03
(PID.TID 0000.0001) %MON trcstat_ptracer59_del2       =   3.1751737363427990E-06
(PID.TID 0000.0001) %MON trcstat_ptracer60_max        =   1.5847795470626663E-01
(PID.TID 0000.0001) %MON trcstat_ptracer60_min        =   2.2239645545787601E-08
(PID.TID 0000.0001) %MON trcstat_ptracer60_mean       =   2.3471744293157511E-04
(PID.TID 0000.0001) %MON trcstat_ptracer60_sd         =   1.9787103975776360E-03
(PID.TID 0000.0001) %MON trcstat_ptracer60_del2       =   2.6457824041109781E-06
(PID.TID 0000.0001) %MON trcstat_ptracer61_max        =   1.3331976746393120E-01
(PID.TID 0000.0001) %MON trcstat_ptracer61_min        =   2.0515467597526097E-08
(PID.TID 0000.0001) %MON trcstat_ptracer61_mean       =   1.9719041474456072E-04
(PID.TID 0000.0001) %MON trcstat_ptracer61_sd         =   1.6612131786894050E-03
(PID.TID 0000.0001) %MON trcstat_ptracer61_del2       =   2.2255370853899959E-06
(PID.TID 0000.0001) %MON trcstat_ptracer62_max        =   2.5149887660149133E-02
(PID.TID 0000.0001) %MON trcstat_ptracer62_min        =   4.1863719121545684E-09
(PID.TID 0000.0001) %MON trcstat_ptracer62_mean       =   3.5263830514094892E-05
(PID.TID 0000.0001) %MON trcstat_ptracer62_sd         =   2.9311621895007156E-04
(PID.TID 0000.0001) %MON trcstat_ptracer62_del2       =   3.9389444752131582E-07
(PID.TID 0000.0001) %MON trcstat_ptracer63_max        =   1.1484832817072960E-01
(PID.TID 0000.0001) %MON trcstat_ptracer63_min        =   2.0328195588055338E-08
(PID.TID 0000.0001) %MON trcstat_ptracer63_mean       =   1.7003889023670200E-04
(PID.TID 0000.0001) %MON trcstat_ptracer63_sd         =   1.4274687922331399E-03
(PID.TID 0000.0001) %MON trcstat_ptracer63_del2       =   1.9155442442591740E-06
(PID.TID 0000.0001) %MON trcstat_ptracer64_max        =   1.0788406619956942E-01
(PID.TID 0000.0001) %MON trcstat_ptracer64_min        =   2.1743682600532070E-08
(PID.TID 0000.0001) %MON trcstat_ptracer64_mean       =   1.5854392888006171E-04
(PID.TID 0000.0001) %MON trcstat_ptracer64_sd         =   1.3115548418190881E-03
(PID.TID 0000.0001) %MON trcstat_ptracer64_del2       =   1.7423445672742176E-06
(PID.TID 0000.0001) %MON trcstat_ptracer65_max        =   2.5137456501539406E-02
(PID.TID 0000.0001) %MON trcstat_ptracer65_min        =   5.0439351475240842E-09
(PID.TID 0000.0001) %MON trcstat_ptracer65_mean       =   3.5256916913389747E-05
(PID.TID 0000.0001) %MON trcstat_ptracer65_sd         =   2.9289519301165933E-04
(PID.TID 0000.0001) %MON trcstat_ptracer65_del2       =   3.9315577310390233E-07
(PID.TID 0000.0001) %MON trcstat_ptracer66_max        =   1.0532075741701952E-01
(PID.TID 0000.0001) %MON trcstat_ptracer66_min        =   2.1708172012966407E-08
(PID.TID 0000.0001) %MON trcstat_ptracer66_mean       =   1.5178946649538040E-04
(PID.TID 0000.0001) %MON trcstat_ptracer66_sd         =   1.2671103750524725E-03
(PID.TID 0000.0001) %MON trcstat_ptracer66_del2       =   1.7000423696939111E-06
(PID.TID 0000.0001) %MON trcstat_ptracer67_max        =   1.0246372390852106E-01
(PID.TID 0000.0001) %MON trcstat_ptracer67_min        =   2.5579385366299273E-08
(PID.TID 0000.0001) %MON trcstat_ptracer67_mean       =   1.4501512230915986E-04
(PID.TID 0000.0001) %MON trcstat_ptracer67_sd         =   1.1980256916803264E-03
(PID.TID 0000.0001) %MON trcstat_ptracer67_del2       =   1.5984462797317859E-06
(PID.TID 0000.0001) %MON trcstat_ptracer68_max        =   2.5275962309123115E-02
(PID.TID 0000.0001) %MON trcstat_ptracer68_min        =   6.3945324987865908E-09
(PID.TID 0000.0001) %MON trcstat_ptracer68_mean       =   3.5261647944814420E-05
(PID.TID 0000.0001) %MON trcstat_ptracer68_sd         =   2.9298904896324075E-04
(PID.TID 0000.0001) %MON trcstat_ptracer68_del2       =   3.9358512975114345E-07
(PID.TID 0000.0001) %MON trcstat_ptracer69_max        =   1.0110384923649246E-01
(PID.TID 0000.0001) %MON trcstat_ptracer69_min        =   2.5578129995138694E-08
(PID.TID 0000.0001) %MON trcstat_ptracer69_mean       =   1.4104659177925760E-04
(PID.TID 0000.0001) %MON trcstat_ptracer69_sd         =   1.1719561958529630E-03
(PID.TID 0000.0001) %MON trcstat_ptracer69_del2       =   1.5743405190045734E-06
(PID.TID 0000.0001) %MON trcstat_ptracer70_max        =   1.0160688727051592E-01
(PID.TID 0000.0001) %MON trcstat_ptracer70_min        =   2.7135976692488680E-08
(PID.TID 0000.0001) %MON trcstat_ptracer70_mean       =   1.4177503400831842E-04
(PID.TID 0000.0001) %MON trcstat_ptracer70_sd         =   1.1760660308315965E-03
(PID.TID 0000.0001) %MON trcstat_ptracer70_del2       =   1.5782031185859103E-06
(PID.TID 0000.0001) %MON trcstat_ptracer71_max        =   2.5401721817628981E-02
(PID.TID 0000.0001) %MON trcstat_ptracer71_min        =   6.7839941731326579E-09
(PID.TID 0000.0001) %MON trcstat_ptracer71_mean       =   3.5265593507166097E-05
(PID.TID 0000.0001) %MON trcstat_ptracer71_sd         =   2.9303488055625461E-04
(PID.TID 0000.0001) %MON trcstat_ptracer71_del2       =   3.9383150687767917E-07
(PID.TID 0000.0001) %MON trcstat_ptracer72_max        =   1.0160688727051592E-01
(PID.TID 0000.0001) %MON trcstat_ptracer72_min        =   2.7135976692488621E-08
(PID.TID 0000.0001) %MON trcstat_ptracer72_mean       =   1.4106237402866434E-04
(PID.TID 0000.0001) %MON trcstat_ptracer72_sd         =   1.1721395222250184E-03
(PID.TID 0000.0001) %MON trcstat_ptracer72_del2       =   1.5753260275107167E-06
(PID.TID 0000.0001) %MON trcstat_ptracer73_max        =   1.0208426869948234E-01
(PID.TID 0000.0001) %MON trcstat_ptracer73_min        =   2.8466022137062182E-08
(PID.TID 0000.0001) %MON trcstat_ptracer73_mean       =   1.4114540813066687E-04
(PID.TID 0000.0001) %MON trcstat_ptracer73_sd         =   1.1724336101995418E-03
(PID.TID 0000.0001) %MON trcstat_ptracer73_del2       =   1.5757687131540244E-06
(PID.TID 0000.0001) %MON trcstat_ptracer74_max        =   2.5521067174870585E-02
(PID.TID 0000.0001) %MON trcstat_ptracer74_min        =   7.1165055342682015E-09
(PID.TID 0000.0001) %MON trcstat_ptracer74_mean       =   3.5268890088796818E-05
(PID.TID 0000.0001) %MON trcstat_ptracer74_sd         =   2.9302802441280893E-04
(PID.TID 0000.0001) %MON trcstat_ptracer74_del2       =   3.9388420225404914E-07
(PID.TID 0000.0001) %MON trcstat_ptracer75_max        =   1.0208426869948234E-01
(PID.TID 0000.0001) %MON trcstat_ptracer75_min        =   2.8466022137062185E-08
(PID.TID 0000.0001) %MON trcstat_ptracer75_mean       =   1.4107556035518719E-04
(PID.TID 0000.0001) %MON trcstat_ptracer75_sd         =   1.1721120976512357E-03
(PID.TID 0000.0001) %MON trcstat_ptracer75_del2       =   1.5755368090161968E-06
(PID.TID 0000.0001) %MON trcstat_ptracer76_max        =   1.0257433271679194E-01
(PID.TID 0000.0001) %MON trcstat_ptracer76_min        =   3.2098524261657731E-08
(PID.TID 0000.0001) %MON trcstat_ptracer76_mean       =   1.4108820776528316E-04
(PID.TID 0000.0001) %MON trcstat_ptracer76_sd         =   1.1718812388633877E-03
(PID.TID 0000.0001) %MON trcstat_ptracer76_del2       =   1.5750131361795064E-06
(PID.TID 0000.0001) %MON trcstat_ptracer77_max        =   1.0257433271679194E-01
(PID.TID 0000.0001) %MON trcstat_ptracer77_min        =   3.2098524261657731E-08
(PID.TID 0000.0001) %MON trcstat_ptracer77_mean       =   1.4108813728390209E-04
(PID.TID 0000.0001) %MON trcstat_ptracer77_sd         =   1.1718811049858759E-03
(PID.TID 0000.0001) %MON trcstat_ptracer77_del2       =   1.5750131135245336E-06
(PID.TID 0000.0001) %MON trcstat_ptracer78_max        =   1.0331858254409586E-01
(PID.TID 0000.0001) %MON trcstat_ptracer78_min        =   3.6703902035492002E-08
(PID.TID 0000.0001) %MON trcstat_ptracer78_mean       =   1.4111291556394417E-04
(PID.TID 0000.0001) %MON trcstat_ptracer78_sd         =   1.1717695025378809E-03
(PID.TID 0000.0001) %MON trcstat_ptracer78_del2       =   1.5750560075982011E-06
(PID.TID 0000.0001) %MON trcstat_ptracer79_max        =   1.0386979613390912E-01
(PID.TID 0000.0001) %MON trcstat_ptracer79_min        =   4.2684256125096068E-08
(PID.TID 0000.0001) %MON trcstat_ptracer79_mean       =   1.4111807174322892E-04
(PID.TID 0000.0001) %MON trcstat_ptracer79_sd         =   1.1707427576672183E-03
(PID.TID 0000.0001) %MON trcstat_ptracer79_del2       =   1.5718386461223513E-06
(PID.TID 0000.0001) %MON trcstat_ptracer80_max        =   1.0455556891085882E-01
(PID.TID 0000.0001) %MON trcstat_ptracer80_min        =   5.1123163618010534E-08
(PID.TID 0000.0001) %MON trcstat_ptracer80_mean       =   1.4112275520240344E-04
(PID.TID 0000.0001) %MON trcstat_ptracer80_sd         =   1.1692497460402895E-03
(PID.TID 0000.0001) %MON trcstat_ptracer80_del2       =   1.5671941024397568E-06
(PID.TID 0000.0001) %MON trcstat_ptracer81_max        =   1.0544262687950463E-01
(PID.TID 0000.0001) %MON trcstat_ptracer81_min        =   6.4256106277940564E-08
(PID.TID 0000.0001) %MON trcstat_ptracer81_mean       =   1.4112722078057363E-04
(PID.TID 0000.0001) %MON trcstat_ptracer81_sd         =   1.1671477291255762E-03
(PID.TID 0000.0001) %MON trcstat_ptracer81_del2       =   1.5608230949990221E-06
(PID.TID 0000.0001) %MON trcstat_ptracer82_max        =   1.0849513282470466E-01
(PID.TID 0000.0001) %MON trcstat_ptracer82_min        =   1.0334657489354541E-08
(PID.TID 0000.0001) %MON trcstat_ptracer82_mean       =   1.4649700169453258E-04
(PID.TID 0000.0001) %MON trcstat_ptracer82_sd         =   1.2147551290878965E-03
(PID.TID 0000.0001) %MON trcstat_ptracer82_del2       =   1.6438554475315550E-06
(PID.TID 0000.0001) %MON trcstat_ptracer83_max        =   1.0726401032750602E-01
(PID.TID 0000.0001) %MON trcstat_ptracer83_min        =   1.0334638081905229E-08
(PID.TID 0000.0001) %MON trcstat_ptracer83_mean       =   1.4645539309691513E-04
(PID.TID 0000.0001) %MON trcstat_ptracer83_sd         =   1.2133179163804375E-03
(PID.TID 0000.0001) %MON trcstat_ptracer83_del2       =   1.6375258428901341E-06
(PID.TID 0000.0001) %MON trcstat_ptracer84_max        =   1.0650278270766717E-01
(PID.TID 0000.0001) %MON trcstat_ptracer84_min        =   1.0334622559429981E-08
(PID.TID 0000.0001) %MON trcstat_ptracer84_mean       =   1.4643008252793969E-04
(PID.TID 0000.0001) %MON trcstat_ptracer84_sd         =   1.2124449610463443E-03
(PID.TID 0000.0001) %MON trcstat_ptracer84_del2       =   1.6336855228245594E-06
(PID.TID 0000.0001) %MON trcstat_ptracer85_max        =   1.0601621241838600E-01
(PID.TID 0000.0001) %MON trcstat_ptracer85_min        =   1.0334610100155521E-08
(PID.TID 0000.0001) %MON trcstat_ptracer85_mean       =   1.4641439318044736E-04
(PID.TID 0000.0001) %MON trcstat_ptracer85_sd         =   1.2119035413095827E-03
(PID.TID 0000.0001) %MON trcstat_ptracer85_del2       =   1.6312966024363218E-06
(PID.TID 0000.0001) %MON trcstat_ptracer86_max        =   1.0570570195711715E-01
(PID.TID 0000.0001) %MON trcstat_ptracer86_min        =   1.0334600731200758E-08
(PID.TID 0000.0001) %MON trcstat_ptracer86_mean       =   1.4640477965727308E-04
(PID.TID 0000.0001) %MON trcstat_ptracer86_sd         =   1.2115712003297548E-03
(PID.TID 0000.0001) %MON trcstat_ptracer86_del2       =   1.6298223547534316E-06
(PID.TID 0000.0001) %MON trcstat_ptracer87_max        =   1.0570435086149252E-01
(PID.TID 0000.0001) %MON trcstat_ptracer87_min        =   1.0334600730596347E-08
(PID.TID 0000.0001) %MON trcstat_ptracer87_mean       =   1.4640475967499548E-04
(PID.TID 0000.0001) %MON trcstat_ptracer87_sd         =   1.2115703483120540E-03
(PID.TID 0000.0001) %MON trcstat_ptracer87_del2       =   1.6298175671670280E-06
(PID.TID 0000.0001) %MON trcstat_ptracer88_max        =   1.0570481835016354E-01
(PID.TID 0000.0001) %MON trcstat_ptracer88_min        =   1.0334600730756990E-08
(PID.TID 0000.0001) %MON trcstat_ptracer88_mean       =   1.4640476556397207E-04
(PID.TID 0000.0001) %MON trcstat_ptracer88_sd         =   1.2115706057135890E-03
(PID.TID 0000.0001) %MON trcstat_ptracer88_del2       =   1.6298190402319687E-06
(PID.TID 0000.0001) %MON trcstat_ptracer89_max        =   1.0570520567772361E-01
(PID.TID 0000.0001) %MON trcstat_ptracer89_min        =   1.0334600730890125E-08
(PID.TID 0000.0001) %MON trcstat_ptracer89_mean       =   1.4640477044945043E-04
(PID.TID 0000.0001) %MON trcstat_ptracer89_sd         =   1.2115708191557501E-03
(PID.TID 0000.0001) %MON trcstat_ptracer89_del2       =   1.6298202620579956E-06
(PID.TID 0000.0001) %MON trcstat_ptracer90_max        =   1.0570552593354983E-01
(PID.TID 0000.0001) %MON trcstat_ptracer90_min        =   1.0334600731000281E-08
(PID.TID 0000.0001) %MON trcstat_ptracer90_mean       =   1.4640477448738971E-04
(PID.TID 0000.0001) %MON trcstat_ptracer90_sd         =   1.2115709955947832E-03
(PID.TID 0000.0001) %MON trcstat_ptracer90_del2       =   1.6298212712845559E-06
(PID.TID 0000.0001) %MON trcstat_ptracer91_max        =   1.0570586019057629E-01
(PID.TID 0000.0001) %MON trcstat_ptracer91_min        =   1.0334600731129723E-08
(PID.TID 0000.0001) %MON trcstat_ptracer91_mean       =   1.4640477894220288E-04
(PID.TID 0000.0001) %MON trcstat_ptracer91_sd         =   1.2115711884471982E-03
(PID.TID 0000.0001) %MON trcstat_ptracer91_del2       =   1.6298223602724939E-06
(PID.TID 0000.0001) %MON trcstat_ptracer92_max        =   1.0570666348255225E-01
(PID.TID 0000.0001) %MON trcstat_ptracer92_min        =   1.0334600731440379E-08
(PID.TID 0000.0001) %MON trcstat_ptracer92_mean       =   1.4640478967233207E-04
(PID.TID 0000.0001) %MON trcstat_ptracer92_sd         =   1.2115716537593121E-03
(PID.TID 0000.0001) %MON trcstat_ptracer92_del2       =   1.6298249751726273E-06
(PID.TID 0000.0001) %MON trcstat_ptracer93_max        =   1.0570673175146168E-01
(PID.TID 0000.0001) %MON trcstat_ptracer93_min        =   1.0334600731455754E-08
(PID.TID 0000.0001) %MON trcstat_ptracer93_mean       =   1.4640479037233213E-04
(PID.TID 0000.0001) %MON trcstat_ptracer93_sd         =   1.2115716854308339E-03
(PID.TID 0000.0001) %MON trcstat_ptracer93_del2       =   1.6298251645277967E-06
(PID.TID 0000.0001) %MON trcstat_ptracer94_max        =   1.0570678808735563E-01
(PID.TID 0000.0001) %MON trcstat_ptracer94_min        =   1.0334600731468445E-08
(PID.TID 0000.0001) %MON trcstat_ptracer94_mean       =   1.4640479094872087E-04
(PID.TID 0000.0001) %MON trcstat_ptracer94_sd         =   1.2115717115241643E-03
(PID.TID 0000.0001) %MON trcstat_ptracer94_del2       =   1.6298253201086472E-06
(PID.TID 0000.0001) %MON trcstat_ptracer95_max        =   1.0570683456587322E-01
(PID.TID 0000.0001) %MON trcstat_ptracer95_min        =   1.0334600731478844E-08
(PID.TID 0000.0001) %MON trcstat_ptracer95_mean       =   1.4640479142350991E-04
(PID.TID 0000.0001) %MON trcstat_ptracer95_sd         =   1.2115717330288918E-03
(PID.TID 0000.0001) %MON trcstat_ptracer95_del2       =   1.6298254480288487E-06
(PID.TID 0000.0001) %MON trcstat_ptracer96_max        =   8.5229316624534143E-03
(PID.TID 0000.0001) %MON trcstat_ptracer96_min        =   1.0386971122042590E-09
(PID.TID 0000.0001) %MON trcstat_ptracer96_mean       =   1.2546821264171826E-05
(PID.TID 0000.0001) %MON trcstat_ptracer96_sd         =   1.0425211229753099E-04
(PID.TID 0000.0001) %MON trcstat_ptracer96_del2       =   1.3928808889156390E-07
(PID.TID 0000.0001) %MON trcstat_ptracer97_max        =   7.8603352295856608E-03
(PID.TID 0000.0001) %MON trcstat_ptracer97_min        =   1.0031978313999307E-09
(PID.TID 0000.0001) %MON trcstat_ptracer97_mean       =   1.1497601303327861E-05
(PID.TID 0000.0001) %MON trcstat_ptracer97_sd         =   9.5589842420348427E-05
(PID.TID 0000.0001) %MON trcstat_ptracer97_del2       =   1.2788181512227151E-07
(PID.TID 0000.0001) %MON trcstat_ptracer98_max        =   7.4628364499774611E-03
(PID.TID 0000.0001) %MON trcstat_ptracer98_min        =   1.0058606588302470E-09
(PID.TID 0000.0001) %MON trcstat_ptracer98_mean       =   1.0749939087138618E-05
(PID.TID 0000.0001) %MON trcstat_ptracer98_sd         =   8.9374892527212133E-05
(PID.TID 0000.0001) %MON trcstat_ptracer98_del2       =   1.1967348426663491E-07
(PID.TID 0000.0001) %MON trcstat_ptracer99_max        =   7.4865957929119908E-03
(PID.TID 0000.0001) %MON trcstat_ptracer99_min        =   1.0878542462032603E-09
(PID.TID 0000.0001) %MON trcstat_ptracer99_mean       =   1.0570938565621056E-05
(PID.TID 0000.0001) %MON trcstat_ptracer99_sd         =   8.7865038891833262E-05
(PID.TID 0000.0001) %MON trcstat_ptracer99_del2       =   1.1799827313738167E-07
(PID.TID 0000.0001) %MON trcstat_ptracer0a_max        =   7.3925361870536303E-04
(PID.TID 0000.0001) %MON trcstat_ptracer0a_min        =   1.2447981361244396E-10
(PID.TID 0000.0001) %MON trcstat_ptracer0a_mean       =   1.0499507627038590E-06
(PID.TID 0000.0001) %MON trcstat_ptracer0a_sd         =   8.7315349589758770E-06
(PID.TID 0000.0001) %MON trcstat_ptracer0a_del2       =   1.1725250930631328E-08
(PID.TID 0000.0001) %MON trcstat_ptracer0b_max        =   7.3925361870536312E-03
(PID.TID 0000.0001) %MON trcstat_ptracer0b_min        =   1.2447981361238795E-09
(PID.TID 0000.0001) %MON trcstat_ptracer0b_mean       =   1.0499507627038586E-05
(PID.TID 0000.0001) %MON trcstat_ptracer0b_sd         =   8.7315349589758726E-05
(PID.TID 0000.0001) %MON trcstat_ptracer0b_del2       =   1.1725250930631334E-07
(PID.TID 0000.0001) %MON trcstat_ptracer0c_max        =   7.7039064971253226E-03
(PID.TID 0000.0001) %MON trcstat_ptracer0c_min        =   1.4746741635560231E-09
(PID.TID 0000.0001) %MON trcstat_ptracer0c_mean       =   1.1514926999281546E-05
(PID.TID 0000.0001) %MON trcstat_ptracer0c_sd         =   9.3334888603297184E-05
(PID.TID 0000.0001) %MON trcstat_ptracer0c_del2       =   1.2228286859714545E-07
(PID.TID 0000.0001) %MON trcstat_ptracer0d_max        =   7.1736851621517696E-04
(PID.TID 0000.0001) %MON trcstat_ptracer0d_min        =   1.4703572859457050E-10
(PID.TID 0000.0001) %MON trcstat_ptracer0d_mean       =   1.0318940738809888E-06
(PID.TID 0000.0001) %MON trcstat_ptracer0d_sd         =   8.5808253888459050E-06
(PID.TID 0000.0001) %MON trcstat_ptracer0d_del2       =   1.1498241602379768E-08
(PID.TID 0000.0001) %MON trcstat_ptracer0e_max        =   7.1736851621517694E-03
(PID.TID 0000.0001) %MON trcstat_ptracer0e_min        =   1.4703572859451340E-09
(PID.TID 0000.0001) %MON trcstat_ptracer0e_mean       =   1.0318940738809894E-05
(PID.TID 0000.0001) %MON trcstat_ptracer0e_sd         =   8.5808253888459046E-05
(PID.TID 0000.0001) %MON trcstat_ptracer0e_del2       =   1.1498241602379771E-07
(PID.TID 0000.0001) %MON trcstat_ptracer0f_max        =   7.2910072513787455E-03
(PID.TID 0000.0001) %MON trcstat_ptracer0f_min        =   1.8175843929490806E-09
(PID.TID 0000.0001) %MON trcstat_ptracer0f_mean       =   1.0922154103656608E-05
(PID.TID 0000.0001) %MON trcstat_ptracer0f_sd         =   8.9080038995750511E-05
(PID.TID 0000.0001) %MON trcstat_ptracer0f_del2       =   1.1716544635361117E-07
(PID.TID 0000.0001) %MON trcstat_ptracer0g_max        =   6.9726807563227770E-04
(PID.TID 0000.0001) %MON trcstat_ptracer0g_min        =   1.8138006451517929E-10
(PID.TID 0000.0001) %MON trcstat_ptracer0g_mean       =   1.0069249843889430E-06
(PID.TID 0000.0001) %MON trcstat_ptracer0g_sd         =   8.3779840796143035E-06
(PID.TID 0000.0001) %MON trcstat_ptracer0g_del2       =   1.1223061356528044E-08
(PID.TID 0000.0001) %MON trcstat_ptracer0h_max        =   6.9726807563227772E-03
(PID.TID 0000.0001) %MON trcstat_ptracer0h_min        =   1.8138006451512685E-09
(PID.TID 0000.0001) %MON trcstat_ptracer0h_mean       =   1.0069249843889455E-05
(PID.TID 0000.0001) %MON trcstat_ptracer0h_sd         =   8.3779840796143143E-05
(PID.TID 0000.0001) %MON trcstat_ptracer0h_del2       =   1.1223061356528059E-07
(PID.TID 0000.0001) %MON trcstat_ptracer0i_max        =   6.9836244607357958E-03
(PID.TID 0000.0001) %MON trcstat_ptracer0i_min        =   1.8807823444734389E-09
(PID.TID 0000.0001) %MON trcstat_ptracer0i_mean       =   1.0371278901050520E-05
(PID.TID 0000.0001) %MON trcstat_ptracer0i_sd         =   8.5076447526819934E-05
(PID.TID 0000.0001) %MON trcstat_ptracer0i_del2       =   1.1238480869036628E-07
(PID.TID 0000.0001) %MON trcstat_ptracer0j_max        =   6.7949693181883165E-04
(PID.TID 0000.0001) %MON trcstat_ptracer0j_min        =   1.9032285034068126E-10
(PID.TID 0000.0001) %MON trcstat_ptracer0j_mean       =   9.8010952587191208E-07
(PID.TID 0000.0001) %MON trcstat_ptracer0j_sd         =   8.1567889999301972E-06
(PID.TID 0000.0001) %MON trcstat_ptracer0j_del2       =   1.0923261869083478E-08
(PID.TID 0000.0001) %MON trcstat_ptracer0k_max        =   6.7949693181883156E-03
(PID.TID 0000.0001) %MON trcstat_ptracer0k_min        =   1.9032285034060624E-09
(PID.TID 0000.0001) %MON trcstat_ptracer0k_mean       =   9.8010952587191238E-06
(PID.TID 0000.0001) %MON trcstat_ptracer0k_sd         =   8.1567889999302026E-05
(PID.TID 0000.0001) %MON trcstat_ptracer0k_del2       =   1.0923261869083491E-07
(PID.TID 0000.0001) %MON trcstat_ptracer0l_max        =   6.7726688634861740E-03
(PID.TID 0000.0001) %MON trcstat_ptracer0l_min        =   1.9344178787462325E-09
(PID.TID 0000.0001) %MON trcstat_ptracer0l_mean       =   9.9149261918737657E-06
(PID.TID 0000.0001) %MON trcstat_ptracer0l_sd         =   8.1714062283359457E-05
(PID.TID 0000.0001) %MON trcstat_ptracer0l_del2       =   1.0837042317317420E-07
(PID.TID 0000.0001) %MON trcstat_ptracer0m_max        =   6.6647107490200156E-04
(PID.TID 0000.0001) %MON trcstat_ptracer0m_min        =   2.0008373207216205E-10
(PID.TID 0000.0001) %MON trcstat_ptracer0m_mean       =   9.5542975916483393E-07
(PID.TID 0000.0001) %MON trcstat_ptracer0m_sd         =   7.9503652926872444E-06
(PID.TID 0000.0001) %MON trcstat_ptracer0m_del2       =   1.0644680527877652E-08
(PID.TID 0000.0001) %MON trcstat_ptracer0n_max        =   6.6647107490200152E-03
(PID.TID 0000.0001) %MON trcstat_ptracer0n_min        =   2.0008373207209015E-09
(PID.TID 0000.0001) %MON trcstat_ptracer0n_mean       =   9.5542975916483152E-06
(PID.TID 0000.0001) %MON trcstat_ptracer0n_sd         =   7.9503652926872509E-05
(PID.TID 0000.0001) %MON trcstat_ptracer0n_del2       =   1.0644680527877703E-07
(PID.TID 0000.0001) %MON trcstat_ptracer0o_max        =   6.6438466486441619E-03
(PID.TID 0000.0001) %MON trcstat_ptracer0o_min        =   2.1316505087895632E-09
(PID.TID 0000.0001) %MON trcstat_ptracer0o_mean       =   9.5689332027690821E-06
(PID.TID 0000.0001) %MON trcstat_ptracer0o_sd         =   7.9108654632083949E-05
(PID.TID 0000.0001) %MON trcstat_ptracer0o_del2       =   1.0524003759696635E-07
(PID.TID 0000.0001) %MON trcstat_ptracer0p_max        =   6.5845522988484725E-03
(PID.TID 0000.0001) %MON trcstat_ptracer0p_min        =   2.1309797778491570E-09
(PID.TID 0000.0001) %MON trcstat_ptracer0p_mean       =   9.3484017140065122E-06
(PID.TID 0000.0001) %MON trcstat_ptracer0p_sd         =   7.7755052192409632E-05
(PID.TID 0000.0001) %MON trcstat_ptracer0p_del2       =   1.0409879096132778E-07
(PID.TID 0000.0001) %MON trcstat_ptracer0q_max        =   6.5913571871386439E-03
(PID.TID 0000.0001) %MON trcstat_ptracer0q_min        =   2.3952756428507759E-09
(PID.TID 0000.0001) %MON trcstat_ptracer0q_mean       =   9.3197321694456910E-06
(PID.TID 0000.0001) %MON trcstat_ptracer0q_sd         =   7.7194262474818755E-05
(PID.TID 0000.0001) %MON trcstat_ptracer0q_del2       =   1.0297864676374320E-07
(PID.TID 0000.0001) %MON trcstat_ptracer0r_max        =   6.5668237238856670E-03
(PID.TID 0000.0001) %MON trcstat_ptracer0r_min        =   2.7462928073240669E-09
(PID.TID 0000.0001) %MON trcstat_ptracer0r_mean       =   9.1450493664812090E-06
(PID.TID 0000.0001) %MON trcstat_ptracer0r_sd         =   7.5774635572527682E-05
(PID.TID 0000.0001) %MON trcstat_ptracer0r_del2       =   1.0118279331464818E-07
(PID.TID 0000.0001) %MON trcstat_ptracer0s_max        =   6.5759067815441335E-03
(PID.TID 0000.0001) %MON trcstat_ptracer0s_min        =   3.2557584441214055E-09
(PID.TID 0000.0001) %MON trcstat_ptracer0s_mean       =   9.0268378611009525E-06
(PID.TID 0000.0001) %MON trcstat_ptracer0s_sd         =   7.4748472008308818E-05
(PID.TID 0000.0001) %MON trcstat_ptracer0s_del2       =   9.9809485435609182E-08
(PID.TID 0000.0001) %MON trcstat_ptracer0t_max        =   6.6125019825092361E-03
(PID.TID 0000.0001) %MON trcstat_ptracer0t_min        =   4.0618653680566169E-09
(PID.TID 0000.0001) %MON trcstat_ptracer0t_mean       =   8.9489744568085165E-06
(PID.TID 0000.0001) %MON trcstat_ptracer0t_sd         =   7.3993233318235223E-05
(PID.TID 0000.0001) %MON trcstat_ptracer0t_del2       =   9.8698667606823084E-08
(PID.TID 0000.0001) %MON trcstat_ptracer0u_max        =   6.6517509189467092E-03
(PID.TID 0000.0001) %MON trcstat_ptracer0u_min        =   6.4591377169822686E-10
(PID.TID 0000.0001) %MON trcstat_ptracer0u_mean       =   9.1516715821564627E-06
(PID.TID 0000.0001) %MON trcstat_ptracer0u_sd         =   7.5770664738604454E-05
(PID.TID 0000.0001) %MON trcstat_ptracer0u_del2       =   1.0207567049528955E-07
(PID.TID 0000.0001) %MON trcstat_ptracer0v_max        =   6.6417060631602329E-03
(PID.TID 0000.0001) %MON trcstat_ptracer0v_min        =   6.4591356216120884E-10
(PID.TID 0000.0001) %MON trcstat_ptracer0v_mean       =   9.1513610131773273E-06
(PID.TID 0000.0001) %MON trcstat_ptracer0v_sd         =   7.5759941113960665E-05
(PID.TID 0000.0001) %MON trcstat_ptracer0v_del2       =   1.0202787698011804E-07
(PID.TID 0000.0001) %MON trcstat_ptracer0w_max        =   6.6344527844611149E-03
(PID.TID 0000.0001) %MON trcstat_ptracer0w_min        =   6.4591338804549122E-10
(PID.TID 0000.0001) %MON trcstat_ptracer0w_mean       =   9.1511341142128393E-06
(PID.TID 0000.0001) %MON trcstat_ptracer0w_sd         =   7.5752103425203666E-05
(PID.TID 0000.0001) %MON trcstat_ptracer0w_del2       =   1.0199287877458877E-07
(PID.TID 0000.0001) %MON trcstat_ptracer0x_max        =   6.6292810191954741E-03
(PID.TID 0000.0001) %MON trcstat_ptracer0x_min        =   6.4591324166664874E-10
(PID.TID 0000.0001) %MON trcstat_ptracer0x_mean       =   9.1509746888470776E-06
(PID.TID 0000.0001) %MON trcstat_ptracer0x_sd         =   7.5746605554988507E-05
(PID.TID 0000.0001) %MON trcstat_ptracer0x_del2       =   1.0196841200847038E-07
(PID.TID 0000.0001) %MON trcstat_ptracer0y_max        =   6.6278176998670430E-03
(PID.TID 0000.0001) %MON trcstat_ptracer0y_min        =   6.4591323875236633E-10
(PID.TID 0000.0001) %MON trcstat_ptracer0y_mean       =   9.1509491890789515E-06
(PID.TID 0000.0001) %MON trcstat_ptracer0y_sd         =   7.5745590029652497E-05
(PID.TID 0000.0001) %MON trcstat_ptracer0y_del2       =   1.0196335299565105E-07
(PID.TID 0000.0001) %MON trcstat_ptracer0z_max        =   6.6477084371944703E-03
(PID.TID 0000.0001) %MON trcstat_ptracer0z_min        =   6.4591454975814573E-10
(PID.TID 0000.0001) %MON trcstat_ptracer0z_mean       =   9.1519433223110549E-06
(PID.TID 0000.0001) %MON trcstat_ptracer0z_sd         =   7.5776276143066612E-05
(PID.TID 0000.0001) %MON trcstat_ptracer0z_del2       =   1.0208731868740380E-07
(PID.TID 0000.0001) %MON trcstat_ptracer0A_max        =   6.6399880366417733E-03
(PID.TID 0000.0001) %MON trcstat_ptracer0A_min        =   6.4591420579170161E-10
(PID.TID 0000.0001) %MON trcstat_ptracer0A_mean       =   9.1516293835251157E-06
(PID.TID 0000.0001) %MON trcstat_ptracer0A_sd         =   7.5766182871508009E-05
(PID.TID 0000.0001) %MON trcstat_ptracer0A_del2       =   1.0204474503179590E-07
(PID.TID 0000.0001) %MON trcstat_ptracer0B_max        =   6.6338562977737575E-03
(PID.TID 0000.0001) %MON trcstat_ptracer0B_min        =   6.4591392087698824E-10
(PID.TID 0000.0001) %MON trcstat_ptracer0B_mean       =   9.1513788181991393E-06
(PID.TID 0000.0001) %MON trcstat_ptracer0B_sd         =   7.5758127596389904E-05
(PID.TID 0000.0001) %MON trcstat_ptracer0B_del2       =   1.0201080754463308E-07
(PID.TID 0000.0001) %MON trcstat_ptracer0C_max        =   6.6289592718906847E-03
(PID.TID 0000.0001) %MON trcstat_ptracer0C_min        =   6.4591368476725988E-10
(PID.TID 0000.0001) %MON trcstat_ptracer0C_mean       =   9.1511787922952247E-06
(PID.TID 0000.0001) %MON trcstat_ptracer0C_sd         =   7.5751692319541946E-05
(PID.TID 0000.0001) %MON trcstat_ptracer0C_del2       =   1.0198372101915932E-07
(PID.TID 0000.0001) %MON trcstat_ptracer0D_max        =   6.6240089990010909E-03
(PID.TID 0000.0001) %MON trcstat_ptracer0D_min        =   6.4591340530922934E-10
(PID.TID 0000.0001) %MON trcstat_ptracer0D_mean       =   9.1509638799000835E-06
(PID.TID 0000.0001) %MON trcstat_ptracer0D_sd         =   7.5744870561177236E-05
(PID.TID 0000.0001) %MON trcstat_ptracer0D_del2       =   1.0195552329652855E-07
(PID.TID 0000.0001) %MON trcstat_ptracer0E_max        =   6.6123367090432711E-03
(PID.TID 0000.0001) %MON trcstat_ptracer0E_min        =   6.4591273230074482E-10
(PID.TID 0000.0001) %MON trcstat_ptracer0E_mean       =   9.1504673360451629E-06
(PID.TID 0000.0001) %MON trcstat_ptracer0E_sd         =   7.5729007984321516E-05
(PID.TID 0000.0001) %MON trcstat_ptracer0E_del2       =   1.0188994416972479E-07
(PID.TID 0000.0001) %MON trcstat_ptracer0F_max        =   6.6113460512561119E-03
(PID.TID 0000.0001) %MON trcstat_ptracer0F_min        =   6.4591270014337504E-10
(PID.TID 0000.0001) %MON trcstat_ptracer0F_mean       =   9.1504370771689697E-06
(PID.TID 0000.0001) %MON trcstat_ptracer0F_sd         =   7.5727972952896176E-05
(PID.TID 0000.0001) %MON trcstat_ptracer0F_del2       =   1.0188528838412504E-07
(PID.TID 0000.0001) %MON trcstat_ptracer0G_max        =   6.6105342240029060E-03
(PID.TID 0000.0001) %MON trcstat_ptracer0G_min        =   6.4591267349597732E-10
(PID.TID 0000.0001) %MON trcstat_ptracer0G_mean       =   9.1504124753749486E-06
(PID.TID 0000.0001) %MON trcstat_ptracer0G_sd         =   7.5727129790004009E-05
(PID.TID 0000.0001) %MON trcstat_ptracer0G_del2       =   1.0188149709450022E-07
(PID.TID 0000.0001) %MON trcstat_ptracer0H_max        =   6.6098667805526675E-03
(PID.TID 0000.0001) %MON trcstat_ptracer0H_min        =   6.4591265141678359E-10
(PID.TID 0000.0001) %MON trcstat_ptracer0H_mean       =   9.1503923752052120E-06
(PID.TID 0000.0001) %MON trcstat_ptracer0H_sd         =   7.5726439735819643E-05
(PID.TID 0000.0001) %MON trcstat_ptracer0H_del2       =   1.0187839401851676E-07
(PID.TID 0000.0001) %MON trcstat_ptracer0I_max        =   0.0000000000000000E+00
(PID.TID 0000.0001) %MON trcstat_ptracer0I_min        =   0.0000000000000000E+00
(PID.TID 0000.0001) %MON trcstat_ptracer0I_mean       =   0.0000000000000000E+00
(PID.TID 0000.0001) %MON trcstat_ptracer0I_sd         =   0.0000000000000000E+00
(PID.TID 0000.0001) %MON trcstat_ptracer0I_del2       =   0.0000000000000000E+00
(PID.TID 0000.0001) %MON trcstat_ptracer0J_max        =   0.0000000000000000E+00
(PID.TID 0000.0001) %MON trcstat_ptracer0J_min        =   0.0000000000000000E+00
(PID.TID 0000.0001) %MON trcstat_ptracer0J_mean       =   0.0000000000000000E+00
(PID.TID 0000.0001) %MON trcstat_ptracer0J_sd         =   0.0000000000000000E+00
(PID.TID 0000.0001) %MON trcstat_ptracer0J_del2       =   0.0000000000000000E+00
(PID.TID 0000.0001) %MON trcstat_ptracer0K_max        =   0.0000000000000000E+00
(PID.TID 0000.0001) %MON trcstat_ptracer0K_min        =   0.0000000000000000E+00
(PID.TID 0000.0001) %MON trcstat_ptracer0K_mean       =   0.0000000000000000E+00
(PID.TID 0000.0001) %MON trcstat_ptracer0K_sd         =   0.0000000000000000E+00
(PID.TID 0000.0001) %MON trcstat_ptracer0K_del2       =   0.0000000000000000E+00
(PID.TID 0000.0001) %MON trcstat_ptracer0L_max        =   0.0000000000000000E+00
(PID.TID 0000.0001) %MON trcstat_ptracer0L_min        =   0.0000000000000000E+00
(PID.TID 0000.0001) %MON trcstat_ptracer0L_mean       =   0.0000000000000000E+00
(PID.TID 0000.0001) %MON trcstat_ptracer0L_sd         =   0.0000000000000000E+00
(PID.TID 0000.0001) %MON trcstat_ptracer0L_del2       =   0.0000000000000000E+00
(PID.TID 0000.0001) %MON trcstat_ptracer0M_max        =   0.0000000000000000E+00
(PID.TID 0000.0001) %MON trcstat_ptracer0M_min        =   0.0000000000000000E+00
(PID.TID 0000.0001) %MON trcstat_ptracer0M_mean       =   0.0000000000000000E+00
(PID.TID 0000.0001) %MON trcstat_ptracer0M_sd         =   0.0000000000000000E+00
(PID.TID 0000.0001) %MON trcstat_ptracer0M_del2       =   0.0000000000000000E+00
(PID.TID 0000.0001) %MON trcstat_ptracer0N_max        =   0.0000000000000000E+00
(PID.TID 0000.0001) %MON trcstat_ptracer0N_min        =   0.0000000000000000E+00
(PID.TID 0000.0001) %MON trcstat_ptracer0N_mean       =   0.0000000000000000E+00
(PID.TID 0000.0001) %MON trcstat_ptracer0N_sd         =   0.0000000000000000E+00
(PID.TID 0000.0001) %MON trcstat_ptracer0N_del2       =   0.0000000000000000E+00
(PID.TID 0000.0001) %MON trcstat_ptracer0O_max        =   1.0054982600615762E-01
(PID.TID 0000.0001) %MON trcstat_ptracer0O_min        =   2.0175740590088561E-08
(PID.TID 0000.0001) %MON trcstat_ptracer0O_mean       =   1.4102766765355893E-04
(PID.TID 0000.0001) %MON trcstat_ptracer0O_sd         =   1.1715807720466373E-03
(PID.TID 0000.0001) %MON trcstat_ptracer0O_del2       =   1.5726230924156093E-06
(PID.TID 0000.0001) %MON trcstat_ptracer0P_max        =   0.0000000000000000E+00
(PID.TID 0000.0001) %MON trcstat_ptracer0P_min        =   0.0000000000000000E+00
(PID.TID 0000.0001) %MON trcstat_ptracer0P_mean       =   0.0000000000000000E+00
(PID.TID 0000.0001) %MON trcstat_ptracer0P_sd         =   0.0000000000000000E+00
(PID.TID 0000.0001) %MON trcstat_ptracer0P_del2       =   0.0000000000000000E+00
(PID.TID 0000.0001) %MON trcstat_ptracer0Q_max        =   0.0000000000000000E+00
(PID.TID 0000.0001) %MON trcstat_ptracer0Q_min        =   0.0000000000000000E+00
(PID.TID 0000.0001) %MON trcstat_ptracer0Q_mean       =   0.0000000000000000E+00
(PID.TID 0000.0001) %MON trcstat_ptracer0Q_sd         =   0.0000000000000000E+00
(PID.TID 0000.0001) %MON trcstat_ptracer0Q_del2       =   0.0000000000000000E+00
(PID.TID 0000.0001) %MON trcstat_ptracer0R_max        =   1.0110384923649246E-01
(PID.TID 0000.0001) %MON trcstat_ptracer0R_min        =   2.5578129995138690E-08
(PID.TID 0000.0001) %MON trcstat_ptracer0R_mean       =   1.4104659177925760E-04
(PID.TID 0000.0001) %MON trcstat_ptracer0R_sd         =   1.1719561958529630E-03
(PID.TID 0000.0001) %MON trcstat_ptracer0R_del2       =   1.5743405190045738E-06
(PID.TID 0000.0001) %MON trcstat_ptracer0S_max        =   0.0000000000000000E+00
(PID.TID 0000.0001) %MON trcstat_ptracer0S_min        =   0.0000000000000000E+00
(PID.TID 0000.0001) %MON trcstat_ptracer0S_mean       =   0.0000000000000000E+00
(PID.TID 0000.0001) %MON trcstat_ptracer0S_sd         =   0.0000000000000000E+00
(PID.TID 0000.0001) %MON trcstat_ptracer0S_del2       =   0.0000000000000000E+00
(PID.TID 0000.0001) %MON trcstat_ptracer0T_max        =   0.0000000000000000E+00
(PID.TID 0000.0001) %MON trcstat_ptracer0T_min        =   0.0000000000000000E+00
(PID.TID 0000.0001) %MON trcstat_ptracer0T_mean       =   0.0000000000000000E+00
(PID.TID 0000.0001) %MON trcstat_ptracer0T_sd         =   0.0000000000000000E+00
(PID.TID 0000.0001) %MON trcstat_ptracer0T_del2       =   0.0000000000000000E+00
(PID.TID 0000.0001) %MON trcstat_ptracer0U_max        =   1.0160688727051592E-01
(PID.TID 0000.0001) %MON trcstat_ptracer0U_min        =   2.7135976692488680E-08
(PID.TID 0000.0001) %MON trcstat_ptracer0U_mean       =   1.4106237402866434E-04
(PID.TID 0000.0001) %MON trcstat_ptracer0U_sd         =   1.1721395222250184E-03
(PID.TID 0000.0001) %MON trcstat_ptracer0U_del2       =   1.5753260275107167E-06
(PID.TID 0000.0001) %MON trcstat_ptracer0V_max        =   0.0000000000000000E+00
(PID.TID 0000.0001) %MON trcstat_ptracer0V_min        =   0.0000000000000000E+00
(PID.TID 0000.0001) %MON trcstat_ptracer0V_mean       =   0.0000000000000000E+00
(PID.TID 0000.0001) %MON trcstat_ptracer0V_sd         =   0.0000000000000000E+00
(PID.TID 0000.0001) %MON trcstat_ptracer0V_del2       =   0.0000000000000000E+00
(PID.TID 0000.0001) %MON trcstat_ptracer0W_max        =   0.0000000000000000E+00
(PID.TID 0000.0001) %MON trcstat_ptracer0W_min        =   0.0000000000000000E+00
(PID.TID 0000.0001) %MON trcstat_ptracer0W_mean       =   0.0000000000000000E+00
(PID.TID 0000.0001) %MON trcstat_ptracer0W_sd         =   0.0000000000000000E+00
(PID.TID 0000.0001) %MON trcstat_ptracer0W_del2       =   0.0000000000000000E+00
(PID.TID 0000.0001) %MON trcstat_ptracer0X_max        =   1.0208426869948234E-01
(PID.TID 0000.0001) %MON trcstat_ptracer0X_min        =   2.8466022137062182E-08
(PID.TID 0000.0001) %MON trcstat_ptracer0X_mean       =   1.4107556035518719E-04
(PID.TID 0000.0001) %MON trcstat_ptracer0X_sd         =   1.1721120976512357E-03
(PID.TID 0000.0001) %MON trcstat_ptracer0X_del2       =   1.5755368090161968E-06
(PID.TID 0000.0001) %MON trcstat_ptracer0Y_max        =   0.0000000000000000E+00
(PID.TID 0000.0001) %MON trcstat_ptracer0Y_min        =   0.0000000000000000E+00
(PID.TID 0000.0001) %MON trcstat_ptracer0Y_mean       =   0.0000000000000000E+00
(PID.TID 0000.0001) %MON trcstat_ptracer0Y_sd         =   0.0000000000000000E+00
(PID.TID 0000.0001) %MON trcstat_ptracer0Y_del2       =   0.0000000000000000E+00
(PID.TID 0000.0001) %MON trcstat_ptracer0Z_max        =   0.0000000000000000E+00
(PID.TID 0000.0001) %MON trcstat_ptracer0Z_min        =   0.0000000000000000E+00
(PID.TID 0000.0001) %MON trcstat_ptracer0Z_mean       =   0.0000000000000000E+00
(PID.TID 0000.0001) %MON trcstat_ptracer0Z_sd         =   0.0000000000000000E+00
(PID.TID 0000.0001) %MON trcstat_ptracer0Z_del2       =   0.0000000000000000E+00
(PID.TID 0000.0001) %MON trcstat_ptracer1a_max        =   1.0257433271679194E-01
(PID.TID 0000.0001) %MON trcstat_ptracer1a_min        =   3.2098524261657731E-08
(PID.TID 0000.0001) %MON trcstat_ptracer1a_mean       =   1.4108813728390209E-04
(PID.TID 0000.0001) %MON trcstat_ptracer1a_sd         =   1.1718811049858759E-03
(PID.TID 0000.0001) %MON trcstat_ptracer1a_del2       =   1.5750131135245336E-06
(PID.TID 0000.0001) %MON trcstat_ptracer1b_max        =   0.0000000000000000E+00
(PID.TID 0000.0001) %MON trcstat_ptracer1b_min        =   0.0000000000000000E+00
(PID.TID 0000.0001) %MON trcstat_ptracer1b_mean       =   0.0000000000000000E+00
(PID.TID 0000.0001) %MON trcstat_ptracer1b_sd         =   0.0000000000000000E+00
(PID.TID 0000.0001) %MON trcstat_ptracer1b_del2       =   0.0000000000000000E+00
(PID.TID 0000.0001) %MON trcstat_ptracer1c_max        =   1.0331858254409586E-01
(PID.TID 0000.0001) %MON trcstat_ptracer1c_min        =   3.6703902035492002E-08
(PID.TID 0000.0001) %MON trcstat_ptracer1c_mean       =   1.4111291556394417E-04
(PID.TID 0000.0001) %MON trcstat_ptracer1c_sd         =   1.1717695025378809E-03
(PID.TID 0000.0001) %MON trcstat_ptracer1c_del2       =   1.5750560075982011E-06
(PID.TID 0000.0001) %MON trcstat_ptracer1d_max        =   1.0386979613390912E-01
(PID.TID 0000.0001) %MON trcstat_ptracer1d_min        =   4.2684256125096068E-08
(PID.TID 0000.0001) %MON trcstat_ptracer1d_mean       =   1.4111807174322892E-04
(PID.TID 0000.0001) %MON trcstat_ptracer1d_sd         =   1.1707427576672183E-03
(PID.TID 0000.0001) %MON trcstat_ptracer1d_del2       =   1.5718386461223513E-06
(PID.TID 0000.0001) %MON trcstat_ptracer1e_max        =   1.0455556891085882E-01
(PID.TID 0000.0001) %MON trcstat_ptracer1e_min        =   5.1123163618010534E-08
(PID.TID 0000.0001) %MON trcstat_ptracer1e_mean       =   1.4112275520240344E-04
(PID.TID 0000.0001) %MON trcstat_ptracer1e_sd         =   1.1692497460402895E-03
(PID.TID 0000.0001) %MON trcstat_ptracer1e_del2       =   1.5671941024397568E-06
(PID.TID 0000.0001) %MON trcstat_ptracer1f_max        =   1.0544262687950463E-01
(PID.TID 0000.0001) %MON trcstat_ptracer1f_min        =   6.4256106277940564E-08
(PID.TID 0000.0001) %MON trcstat_ptracer1f_mean       =   1.4112722078057363E-04
(PID.TID 0000.0001) %MON trcstat_ptracer1f_sd         =   1.1671477291255762E-03
(PID.TID 0000.0001) %MON trcstat_ptracer1f_del2       =   1.5608230949990221E-06
(PID.TID 0000.0001) %MON trcstat_ptracer1g_max        =   0.0000000000000000E+00
(PID.TID 0000.0001) %MON trcstat_ptracer1g_min        =   0.0000000000000000E+00
(PID.TID 0000.0001) %MON trcstat_ptracer1g_mean       =   0.0000000000000000E+00
(PID.TID 0000.0001) %MON trcstat_ptracer1g_sd         =   0.0000000000000000E+00
(PID.TID 0000.0001) %MON trcstat_ptracer1g_del2       =   0.0000000000000000E+00
(PID.TID 0000.0001) %MON trcstat_ptracer1h_max        =   0.0000000000000000E+00
(PID.TID 0000.0001) %MON trcstat_ptracer1h_min        =   0.0000000000000000E+00
(PID.TID 0000.0001) %MON trcstat_ptracer1h_mean       =   0.0000000000000000E+00
(PID.TID 0000.0001) %MON trcstat_ptracer1h_sd         =   0.0000000000000000E+00
(PID.TID 0000.0001) %MON trcstat_ptracer1h_del2       =   0.0000000000000000E+00
(PID.TID 0000.0001) %MON trcstat_ptracer1i_max        =   0.0000000000000000E+00
(PID.TID 0000.0001) %MON trcstat_ptracer1i_min        =   0.0000000000000000E+00
(PID.TID 0000.0001) %MON trcstat_ptracer1i_mean       =   0.0000000000000000E+00
(PID.TID 0000.0001) %MON trcstat_ptracer1i_sd         =   0.0000000000000000E+00
(PID.TID 0000.0001) %MON trcstat_ptracer1i_del2       =   0.0000000000000000E+00
(PID.TID 0000.0001) %MON trcstat_ptracer1j_max        =   0.0000000000000000E+00
(PID.TID 0000.0001) %MON trcstat_ptracer1j_min        =   0.0000000000000000E+00
(PID.TID 0000.0001) %MON trcstat_ptracer1j_mean       =   0.0000000000000000E+00
(PID.TID 0000.0001) %MON trcstat_ptracer1j_sd         =   0.0000000000000000E+00
(PID.TID 0000.0001) %MON trcstat_ptracer1j_del2       =   0.0000000000000000E+00
(PID.TID 0000.0001) %MON trcstat_ptracer1k_max        =   0.0000000000000000E+00
(PID.TID 0000.0001) %MON trcstat_ptracer1k_min        =   0.0000000000000000E+00
(PID.TID 0000.0001) %MON trcstat_ptracer1k_mean       =   0.0000000000000000E+00
(PID.TID 0000.0001) %MON trcstat_ptracer1k_sd         =   0.0000000000000000E+00
(PID.TID 0000.0001) %MON trcstat_ptracer1k_del2       =   0.0000000000000000E+00
(PID.TID 0000.0001) %MON trcstat_ptracer1l_max        =   0.0000000000000000E+00
(PID.TID 0000.0001) %MON trcstat_ptracer1l_min        =   0.0000000000000000E+00
(PID.TID 0000.0001) %MON trcstat_ptracer1l_mean       =   0.0000000000000000E+00
(PID.TID 0000.0001) %MON trcstat_ptracer1l_sd         =   0.0000000000000000E+00
(PID.TID 0000.0001) %MON trcstat_ptracer1l_del2       =   0.0000000000000000E+00
(PID.TID 0000.0001) %MON trcstat_ptracer1m_max        =   0.0000000000000000E+00
(PID.TID 0000.0001) %MON trcstat_ptracer1m_min        =   0.0000000000000000E+00
(PID.TID 0000.0001) %MON trcstat_ptracer1m_mean       =   0.0000000000000000E+00
(PID.TID 0000.0001) %MON trcstat_ptracer1m_sd         =   0.0000000000000000E+00
(PID.TID 0000.0001) %MON trcstat_ptracer1m_del2       =   0.0000000000000000E+00
(PID.TID 0000.0001) %MON trcstat_ptracer1n_max        =   0.0000000000000000E+00
(PID.TID 0000.0001) %MON trcstat_ptracer1n_min        =   0.0000000000000000E+00
(PID.TID 0000.0001) %MON trcstat_ptracer1n_mean       =   0.0000000000000000E+00
(PID.TID 0000.0001) %MON trcstat_ptracer1n_sd         =   0.0000000000000000E+00
(PID.TID 0000.0001) %MON trcstat_ptracer1n_del2       =   0.0000000000000000E+00
(PID.TID 0000.0001) %MON trcstat_ptracer1o_max        =   0.0000000000000000E+00
(PID.TID 0000.0001) %MON trcstat_ptracer1o_min        =   0.0000000000000000E+00
(PID.TID 0000.0001) %MON trcstat_ptracer1o_mean       =   0.0000000000000000E+00
(PID.TID 0000.0001) %MON trcstat_ptracer1o_sd         =   0.0000000000000000E+00
(PID.TID 0000.0001) %MON trcstat_ptracer1o_del2       =   0.0000000000000000E+00
(PID.TID 0000.0001) %MON trcstat_ptracer1p_max        =   0.0000000000000000E+00
(PID.TID 0000.0001) %MON trcstat_ptracer1p_min        =   0.0000000000000000E+00
(PID.TID 0000.0001) %MON trcstat_ptracer1p_mean       =   0.0000000000000000E+00
(PID.TID 0000.0001) %MON trcstat_ptracer1p_sd         =   0.0000000000000000E+00
(PID.TID 0000.0001) %MON trcstat_ptracer1p_del2       =   0.0000000000000000E+00
(PID.TID 0000.0001) %MON trcstat_ptracer1q_max        =   0.0000000000000000E+00
(PID.TID 0000.0001) %MON trcstat_ptracer1q_min        =   0.0000000000000000E+00
(PID.TID 0000.0001) %MON trcstat_ptracer1q_mean       =   0.0000000000000000E+00
(PID.TID 0000.0001) %MON trcstat_ptracer1q_sd         =   0.0000000000000000E+00
(PID.TID 0000.0001) %MON trcstat_ptracer1q_del2       =   0.0000000000000000E+00
(PID.TID 0000.0001) %MON trcstat_ptracer1r_max        =   0.0000000000000000E+00
(PID.TID 0000.0001) %MON trcstat_ptracer1r_min        =   0.0000000000000000E+00
(PID.TID 0000.0001) %MON trcstat_ptracer1r_mean       =   0.0000000000000000E+00
(PID.TID 0000.0001) %MON trcstat_ptracer1r_sd         =   0.0000000000000000E+00
(PID.TID 0000.0001) %MON trcstat_ptracer1r_del2       =   0.0000000000000000E+00
(PID.TID 0000.0001) %MON trcstat_ptracer1s_max        =   0.0000000000000000E+00
(PID.TID 0000.0001) %MON trcstat_ptracer1s_min        =   0.0000000000000000E+00
(PID.TID 0000.0001) %MON trcstat_ptracer1s_mean       =   0.0000000000000000E+00
(PID.TID 0000.0001) %MON trcstat_ptracer1s_sd         =   0.0000000000000000E+00
(PID.TID 0000.0001) %MON trcstat_ptracer1s_del2       =   0.0000000000000000E+00
(PID.TID 0000.0001) %MON trcstat_ptracer1t_max        =   0.0000000000000000E+00
(PID.TID 0000.0001) %MON trcstat_ptracer1t_min        =   0.0000000000000000E+00
(PID.TID 0000.0001) %MON trcstat_ptracer1t_mean       =   0.0000000000000000E+00
(PID.TID 0000.0001) %MON trcstat_ptracer1t_sd         =   0.0000000000000000E+00
(PID.TID 0000.0001) %MON trcstat_ptracer1t_del2       =   0.0000000000000000E+00
(PID.TID 0000.0001) %MON trcstat_ptracer1u_max        =   1.3962111564742920E-05
(PID.TID 0000.0001) %MON trcstat_ptracer1u_min        =   1.6107489865149901E-12
(PID.TID 0000.0001) %MON trcstat_ptracer1u_mean       =   1.6835494794869079E-08
(PID.TID 0000.0001) %MON trcstat_ptracer1u_sd         =   1.5090829865299902E-07
(PID.TID 0000.0001) %MON trcstat_ptracer1u_del2       =   2.2030253291260675E-10
(PID.TID 0000.0001) %MON trcstat_ptracer1v_max        =   1.1926966396320392E-05
(PID.TID 0000.0001) %MON trcstat_ptracer1v_min        =   1.4347527512192754E-12
(PID.TID 0000.0001) %MON trcstat_ptracer1v_mean       =   1.4459561541984426E-08
(PID.TID 0000.0001) %MON trcstat_ptracer1v_sd         =   1.2842661050400388E-07
(PID.TID 0000.0001) %MON trcstat_ptracer1v_del2       =   1.8491677868791905E-10
(PID.TID 0000.0001) %MON trcstat_ptracer1w_max        =   1.0393612327586888E-05
(PID.TID 0000.0001) %MON trcstat_ptracer1w_min        =   1.3305486720271289E-12
(PID.TID 0000.0001) %MON trcstat_ptracer1w_mean       =   1.2736805806641654E-08
(PID.TID 0000.0001) %MON trcstat_ptracer1w_sd         =   1.1194640343752623E-07
(PID.TID 0000.0001) %MON trcstat_ptracer1w_del2       =   1.5909473030820072E-10
(PID.TID 0000.0001) %MON trcstat_ptracer1x_max        =   9.2532686043163075E-06
(PID.TID 0000.0001) %MON trcstat_ptracer1x_min        =   1.2951213797890236E-12
(PID.TID 0000.0001) %MON trcstat_ptracer1x_mean       =   1.1503290124049099E-08
(PID.TID 0000.0001) %MON trcstat_ptracer1x_sd         =   1.0003507492154616E-07
(PID.TID 0000.0001) %MON trcstat_ptracer1x_del2       =   1.4052509912156730E-10
(PID.TID 0000.0001) %MON trcstat_ptracer1y_max        =   2.6528710285593424E-06
(PID.TID 0000.0001) %MON trcstat_ptracer1y_min        =   4.3842711054352048E-13
(PID.TID 0000.0001) %MON trcstat_ptracer1y_mean       =   3.6445430063484115E-09
(PID.TID 0000.0001) %MON trcstat_ptracer1y_sd         =   3.0479038882120232E-08
(PID.TID 0000.0001) %MON trcstat_ptracer1y_del2       =   4.1215930771328405E-11
(PID.TID 0000.0001) %MON trcstat_ptracer1z_max        =   8.4049495184078659E-06
(PID.TID 0000.0001) %MON trcstat_ptracer1z_min        =   1.3505095306298324E-12
(PID.TID 0000.0001) %MON trcstat_ptracer1z_mean       =   1.0630558515644784E-08
(PID.TID 0000.0001) %MON trcstat_ptracer1z_sd         =   9.1522399943309116E-08
(PID.TID 0000.0001) %MON trcstat_ptracer1z_del2       =   1.2726339907375456E-10
(PID.TID 0000.0001) %MON trcstat_ptracer1A_max        =   7.8793826536723324E-06
(PID.TID 0000.0001) %MON trcstat_ptracer1A_min        =   1.5057899033598175E-12
(PID.TID 0000.0001) %MON trcstat_ptracer1A_mean       =   1.0120800704448600E-08
(PID.TID 0000.0001) %MON trcstat_ptracer1A_sd         =   8.6191443323579317E-08
(PID.TID 0000.0001) %MON trcstat_ptracer1A_del2       =   1.1874212697625238E-10
(PID.TID 0000.0001) %MON trcstat_ptracer1B_max        =   2.6096335422545833E-06
(PID.TID 0000.0001) %MON trcstat_ptracer1B_min        =   5.2028343265816043E-13
(PID.TID 0000.0001) %MON trcstat_ptracer1B_mean       =   3.6041406317991212E-09
(PID.TID 0000.0001) %MON trcstat_ptracer1B_sd         =   3.0074660124313878E-08
(PID.TID 0000.0001) %MON trcstat_ptracer1B_del2       =   4.0552166552001535E-11
(PID.TID 0000.0001) %MON trcstat_ptracer1C_max        =   7.7569281826514981E-06
(PID.TID 0000.0001) %MON trcstat_ptracer1C_min        =   1.5050074368127735E-12
(PID.TID 0000.0001) %MON trcstat_ptracer1C_mean       =   1.0018981627265590E-08
(PID.TID 0000.0001) %MON trcstat_ptracer1C_sd         =   8.5450956180016075E-08
(PID.TID 0000.0001) %MON trcstat_ptracer1C_del2       =   1.1765453400556573E-10
(PID.TID 0000.0001) %MON trcstat_ptracer1D_max        =   7.4116488396982204E-06
(PID.TID 0000.0001) %MON trcstat_ptracer1D_min        =   1.8003431600491182E-12
(PID.TID 0000.0001) %MON trcstat_ptracer1D_mean       =   9.6645151865216248E-09
(PID.TID 0000.0001) %MON trcstat_ptracer1D_sd         =   8.1772533198504951E-08
(PID.TID 0000.0001) %MON trcstat_ptracer1D_del2       =   1.1191880272631953E-10
(PID.TID 0000.0001) %MON trcstat_ptracer1E_max        =   2.5935239137099767E-06
(PID.TID 0000.0001) %MON trcstat_ptracer1E_min        =   6.5254976965023408E-13
(PID.TID 0000.0001) %MON trcstat_ptracer1E_mean       =   3.5773316048699975E-09
(PID.TID 0000.0001) %MON trcstat_ptracer1E_sd         =   2.9818410867335196E-08
(PID.TID 0000.0001) %MON trcstat_ptracer1E_del2       =   4.0183590267393308E-11
(PID.TID 0000.0001) %MON trcstat_ptracer1F_max        =   7.3314514202492559E-06
(PID.TID 0000.0001) %MON trcstat_ptracer1F_min        =   1.7997581744672449E-12
(PID.TID 0000.0001) %MON trcstat_ptracer1F_mean       =   9.6011883649761239E-09
(PID.TID 0000.0001) %MON trcstat_ptracer1F_sd         =   8.1311803662323590E-08
(PID.TID 0000.0001) %MON trcstat_ptracer1F_del2       =   1.1124899431143353E-10
(PID.TID 0000.0001) %MON trcstat_ptracer1G_max        =   7.0839481075671277E-06
(PID.TID 0000.0001) %MON trcstat_ptracer1G_min        =   1.8485972604007829E-12
(PID.TID 0000.0001) %MON trcstat_ptracer1G_mean       =   9.3566867436728914E-09
(PID.TID 0000.0001) %MON trcstat_ptracer1G_sd         =   7.8752446809260842E-08
(PID.TID 0000.0001) %MON trcstat_ptracer1G_del2       =   1.0723115909528384E-10
(PID.TID 0000.0001) %MON trcstat_ptracer1H_max        =   2.5846461220490792E-06
(PID.TID 0000.0001) %MON trcstat_ptracer1H_min        =   6.9112984376242539E-13
(PID.TID 0000.0001) %MON trcstat_ptracer1H_mean       =   3.5592798727881328E-09
(PID.TID 0000.0001) %MON trcstat_ptracer1H_sd         =   2.9640539326100616E-08
(PID.TID 0000.0001) %MON trcstat_ptracer1H_del2       =   3.9922913794682661E-11
(PID.TID 0000.0001) %MON trcstat_ptracer1I_max        =   7.0334231088021629E-06
(PID.TID 0000.0001) %MON trcstat_ptracer1I_min        =   1.8483817021786609E-12
(PID.TID 0000.0001) %MON trcstat_ptracer1I_mean       =   9.3188922342176505E-09
(PID.TID 0000.0001) %MON trcstat_ptracer1I_sd         =   7.8476634860823296E-08
(PID.TID 0000.0001) %MON trcstat_ptracer1I_del2       =   1.0683141266430960E-10
(PID.TID 0000.0001) %MON trcstat_ptracer1J_max        =   6.8620868724909824E-06
(PID.TID 0000.0001) %MON trcstat_ptracer1J_min        =   1.9360237883468288E-12
(PID.TID 0000.0001) %MON trcstat_ptracer1J_mean       =   9.1535514830732639E-09
(PID.TID 0000.0001) %MON trcstat_ptracer1J_sd         =   7.6722750923009445E-08
(PID.TID 0000.0001) %MON trcstat_ptracer1J_del2       =   1.0404642755912277E-10
(PID.TID 0000.0001) %MON trcstat_ptracer1K_max        =   2.5814683097394296E-06
(PID.TID 0000.0001) %MON trcstat_ptracer1K_min        =   7.3384971552546477E-13
(PID.TID 0000.0001) %MON trcstat_ptracer1K_mean       =   3.5473782216613002E-09
(PID.TID 0000.0001) %MON trcstat_ptracer1K_sd         =   2.9516857659065050E-08
(PID.TID 0000.0001) %MON trcstat_ptracer1K_del2       =   3.9733950177018506E-11
(PID.TID 0000.0001) %MON trcstat_ptracer1L_max        =   6.8311769604504701E-06
(PID.TID 0000.0001) %MON trcstat_ptracer1L_min        =   1.9358809814085448E-12
(PID.TID 0000.0001) %MON trcstat_ptracer1L_mean       =   9.1318783129283065E-09
(PID.TID 0000.0001) %MON trcstat_ptracer1L_sd         =   7.6563452120050701E-08
(PID.TID 0000.0001) %MON trcstat_ptracer1L_del2       =   1.0381456225914506E-10
(PID.TID 0000.0001) %MON trcstat_ptracer1M_max        =   6.7199844793230738E-06
(PID.TID 0000.0001) %MON trcstat_ptracer1M_min        =   2.0928077205786257E-12
(PID.TID 0000.0001) %MON trcstat_ptracer1M_mean       =   9.0228905593014688E-09
(PID.TID 0000.0001) %MON trcstat_ptracer1M_sd         =   7.5381825646664584E-08
(PID.TID 0000.0001) %MON trcstat_ptracer1M_del2       =   1.0190449326658720E-10
(PID.TID 0000.0001) %MON trcstat_ptracer1N_max        =   6.7016434059728861E-06
(PID.TID 0000.0001) %MON trcstat_ptracer1N_min        =   2.0927139743459996E-12
(PID.TID 0000.0001) %MON trcstat_ptracer1N_mean       =   9.0108079759313640E-09
(PID.TID 0000.0001) %MON trcstat_ptracer1N_sd         =   7.5292228352442260E-08
(PID.TID 0000.0001) %MON trcstat_ptracer1N_del2       =   1.0177317568673088E-10
(PID.TID 0000.0001) %MON trcstat_ptracer1O_max        =   6.6511082049149441E-06
(PID.TID 0000.0001) %MON trcstat_ptracer1O_min        =   2.3367461585645682E-12
(PID.TID 0000.0001) %MON trcstat_ptracer1O_mean       =   8.9417288779652431E-09
(PID.TID 0000.0001) %MON trcstat_ptracer1O_sd         =   7.4527661105470999E-08
(PID.TID 0000.0001) %MON trcstat_ptracer1O_del2       =   1.0054962628311732E-10
(PID.TID 0000.0001) %MON trcstat_ptracer1P_max        =   6.6100231172912439E-06
(PID.TID 0000.0001) %MON trcstat_ptracer1P_min        =   2.6961539922368068E-12
(PID.TID 0000.0001) %MON trcstat_ptracer1P_mean       =   8.8912340462613944E-09
(PID.TID 0000.0001) %MON trcstat_ptracer1P_sd         =   7.3934517152181607E-08
(PID.TID 0000.0001) %MON trcstat_ptracer1P_del2       =   9.9492591201074475E-11
(PID.TID 0000.0001) %MON trcstat_ptracer1Q_max        =   6.6051173835492913E-06
(PID.TID 0000.0001) %MON trcstat_ptracer1Q_min        =   3.2141636705069494E-12
(PID.TID 0000.0001) %MON trcstat_ptracer1Q_mean       =   8.8610629951283720E-09
(PID.TID 0000.0001) %MON trcstat_ptracer1Q_sd         =   7.3519660337205335E-08
(PID.TID 0000.0001) %MON trcstat_ptracer1Q_del2       =   9.8678190298759715E-11
(PID.TID 0000.0001) %MON trcstat_ptracer1R_max        =   6.6312204828960555E-06
(PID.TID 0000.0001) %MON trcstat_ptracer1R_min        =   4.0288447525153479E-12
(PID.TID 0000.0001) %MON trcstat_ptracer1R_mean       =   8.8434942649553094E-09
(PID.TID 0000.0001) %MON trcstat_ptracer1R_sd         =   7.3197566588782533E-08
(PID.TID 0000.0001) %MON trcstat_ptracer1R_del2       =   9.7967219891047954E-11
(PID.TID 0000.0001) %MON trcstat_ptracer1S_max        =   6.8351327326860617E-06
(PID.TID 0000.0001) %MON trcstat_ptracer1S_min        =   6.4591777641580592E-13
(PID.TID 0000.0001) %MON trcstat_ptracer1S_mean       =   9.1568648671679281E-09
(PID.TID 0000.0001) %MON trcstat_ptracer1S_sd         =   7.5954411700000404E-08
(PID.TID 0000.0001) %MON trcstat_ptracer1S_del2       =   1.0290036675390309E-10
(PID.TID 0000.0001) %MON trcstat_ptracer1T_max        =   6.7798025153099401E-06
(PID.TID 0000.0001) %MON trcstat_ptracer1T_min        =   6.4591691766237864E-13
(PID.TID 0000.0001) %MON trcstat_ptracer1T_mean       =   9.1552759208376923E-09
(PID.TID 0000.0001) %MON trcstat_ptracer1T_sd         =   7.5897999986164401E-08
(PID.TID 0000.0001) %MON trcstat_ptracer1T_del2       =   1.0264684285761635E-10
(PID.TID 0000.0001) %MON trcstat_ptracer1U_max        =   6.7402193998593471E-06
(PID.TID 0000.0001) %MON trcstat_ptracer1U_min        =   6.4591619023383713E-13
(PID.TID 0000.0001) %MON trcstat_ptracer1U_mean       =   9.1541421537766455E-09
(PID.TID 0000.0001) %MON trcstat_ptracer1U_sd         =   7.5857861911756246E-08
(PID.TID 0000.0001) %MON trcstat_ptracer1U_del2       =   1.0246671280837998E-10
(PID.TID 0000.0001) %MON trcstat_ptracer1V_max        =   6.7113002592615746E-06
(PID.TID 0000.0001) %MON trcstat_ptracer1V_min        =   6.4591557786091684E-13
(PID.TID 0000.0001) %MON trcstat_ptracer1V_mean       =   9.1533144081475854E-09
(PID.TID 0000.0001) %MON trcstat_ptracer1V_sd         =   7.5828640619362854E-08
(PID.TID 0000.0001) %MON trcstat_ptracer1V_del2       =   1.0233570923642341E-10
(PID.TID 0000.0001) %MON trcstat_ptracer1W_max        =   6.7255397710773390E-06
(PID.TID 0000.0001) %MON trcstat_ptracer1W_min        =   6.4591641507928586E-13
(PID.TID 0000.0001) %MON trcstat_ptracer1W_mean       =   9.1538362188205439E-09
(PID.TID 0000.0001) %MON trcstat_ptracer1W_sd         =   7.5845850640460817E-08
(PID.TID 0000.0001) %MON trcstat_ptracer1W_del2       =   1.0240977833210963E-10
(PID.TID 0000.0001) %MON trcstat_ptracer1X_max        =   6.8145630260943928E-06
(PID.TID 0000.0001) %MON trcstat_ptracer1X_min        =   6.4592260210310451E-13
(PID.TID 0000.0001) %MON trcstat_ptracer1X_mean       =   9.1583078385727080E-09
(PID.TID 0000.0001) %MON trcstat_ptracer1X_sd         =   7.5984477107009309E-08
(PID.TID 0000.0001) %MON trcstat_ptracer1X_del2       =   1.0296679922048771E-10
(PID.TID 0000.0001) %MON trcstat_ptracer1Y_max        =   6.7752700457766952E-06
(PID.TID 0000.0001) %MON trcstat_ptracer1Y_min        =   6.4592088192249313E-13
(PID.TID 0000.0001) %MON trcstat_ptracer1Y_mean       =   9.1567979862062230E-09
(PID.TID 0000.0001) %MON trcstat_ptracer1Y_sd         =   7.5934944712113615E-08
(PID.TID 0000.0001) %MON trcstat_ptracer1Y_del2       =   1.0275720760584026E-10
(PID.TID 0000.0001) %MON trcstat_ptracer1Z_max        =   6.7441962546258048E-06
(PID.TID 0000.0001) %MON trcstat_ptracer1Z_min        =   6.4591945185854501E-13
(PID.TID 0000.0001) %MON trcstat_ptracer1Z_mean       =   9.1555996547346164E-09
(PID.TID 0000.0001) %MON trcstat_ptracer1Z_sd         =   7.5895767246053392E-08
(PID.TID 0000.0001) %MON trcstat_ptracer1Z_del2       =   1.0259162219566139E-10
(PID.TID 0000.0001) %MON trcstat_ptracer2a_max        =   6.7193501856517440E-06
(PID.TID 0000.0001) %MON trcstat_ptracer2a_min        =   6.4591826498609511E-13
(PID.TID 0000.0001) %MON trcstat_ptracer2a_mean       =   9.1546389422497807E-09
(PID.TID 0000.0001) %MON trcstat_ptracer2a_sd         =   7.5864435612788434E-08
(PID.TID 0000.0001) %MON trcstat_ptracer2a_del2       =   1.0245929058542714E-10
(PID.TID 0000.0001) %MON trcstat_ptracer2b_max        =   6.6834447611017374E-06
(PID.TID 0000.0001) %MON trcstat_ptracer2b_min        =   6.4591632061347135E-13
(PID.TID 0000.0001) %MON trcstat_ptracer2b_mean       =   9.1531855461330892E-09
(PID.TID 0000.0001) %MON trcstat_ptracer2b_sd         =   7.5817600126822540E-08
(PID.TID 0000.0001) %MON trcstat_ptracer2b_del2       =   1.0226374826655028E-10
(PID.TID 0000.0001) %MON trcstat_ptracer2c_max        =   6.6316284663977064E-06
(PID.TID 0000.0001) %MON trcstat_ptracer2c_min        =   6.4591336479319946E-13
(PID.TID 0000.0001) %MON trcstat_ptracer2c_mean       =   9.1510297870041587E-09
(PID.TID 0000.0001) %MON trcstat_ptracer2c_sd         =   7.5748415400100308E-08
(PID.TID 0000.0001) %MON trcstat_ptracer2c_del2       =   1.0197691915655552E-10
(PID.TID 0000.0001) %MON trcstat_ptracer2d_max        =   6.6272263719902780E-06
(PID.TID 0000.0001) %MON trcstat_ptracer2d_min        =   6.4591322340796769E-13
(PID.TID 0000.0001) %MON trcstat_ptracer2d_mean       =   9.1508995539507988E-09
(PID.TID 0000.0001) %MON trcstat_ptracer2d_sd         =   7.5743935563381792E-08
(PID.TID 0000.0001) %MON trcstat_ptracer2d_del2       =   1.0195674553187504E-10
(PID.TID 0000.0001) %MON trcstat_ptracer2e_max        =   6.6236278022559389E-06
(PID.TID 0000.0001) %MON trcstat_ptracer2e_min        =   6.4591310629332621E-13
(PID.TID 0000.0001) %MON trcstat_ptracer2e_mean       =   9.1507930740636333E-09
(PID.TID 0000.0001) %MON trcstat_ptracer2e_sd         =   7.5740271328710728E-08
(PID.TID 0000.0001) %MON trcstat_ptracer2e_del2       =   1.0194024745082236E-10
(PID.TID 0000.0001) %MON trcstat_ptracer2f_max        =   6.6206760200905671E-06
(PID.TID 0000.0001) %MON trcstat_ptracer2f_min        =   6.4591300930063144E-13
(PID.TID 0000.0001) %MON trcstat_ptracer2f_mean       =   9.1507057062910270E-09
(PID.TID 0000.0001) %MON trcstat_ptracer2f_sd         =   7.5737263101070512E-08
(PID.TID 0000.0001) %MON trcstat_ptracer2f_del2       =   1.0192670265854347E-10
(PID.TID 0000.0001) %MON trcstat_ptracer2g_max        =   2.0989983660890998E-01
(PID.TID 0000.0001) %MON trcstat_ptracer2g_min        =   4.8291765490497789E-08
(PID.TID 0000.0001) %MON trcstat_ptracer2g_mean       =   1.9397801004843388E-04
(PID.TID 0000.0001) %MON trcstat_ptracer2g_sd         =   1.8686651149461509E-03
(PID.TID 0000.0001) %MON trcstat_ptracer2g_del2       =   2.8834381371345334E-06
(PID.TID 0000.0001) %MON trcstat_ptracer2h_max        =   2.1046384320491107E-01
(PID.TID 0000.0001) %MON trcstat_ptracer2h_min        =   4.8871317234566796E-08
(PID.TID 0000.0001) %MON trcstat_ptracer2h_mean       =   1.9787329577091402E-04
(PID.TID 0000.0001) %MON trcstat_ptracer2h_sd         =   1.8936206154001509E-03
(PID.TID 0000.0001) %MON trcstat_ptracer2h_del2       =   2.8482060369890787E-06
(PID.TID 0000.0001) %MON trcstat_ptracer2i_max        =   2.1090158048124288E-01
(PID.TID 0000.0001) %MON trcstat_ptracer2i_min        =   4.9621412086723432E-08
(PID.TID 0000.0001) %MON trcstat_ptracer2i_mean       =   2.0174104769932460E-04
(PID.TID 0000.0001) %MON trcstat_ptracer2i_sd         =   1.9183281806722495E-03
(PID.TID 0000.0001) %MON trcstat_ptracer2i_del2       =   2.8354719717522727E-06
(PID.TID 0000.0001) %MON trcstat_ptracer2j_max        =   2.1122012802185761E-01
(PID.TID 0000.0001) %MON trcstat_ptracer2j_min        =   5.0614028270700356E-08
(PID.TID 0000.0001) %MON trcstat_ptracer2j_mean       =   2.0557902361238047E-04
(PID.TID 0000.0001) %MON trcstat_ptracer2j_sd         =   1.9427502198454281E-03
(PID.TID 0000.0001) %MON trcstat_ptracer2j_del2       =   2.8401115611567541E-06
(PID.TID 0000.0001) %MON trcstat_ptracer2k_max        =   2.1138201170005564E-02
(PID.TID 0000.0001) %MON trcstat_ptracer2k_min        =   5.1706972321644705E-09
(PID.TID 0000.0001) %MON trcstat_ptracer2k_mean       =   2.0225145360197163E-05
(PID.TID 0000.0001) %MON trcstat_ptracer2k_sd         =   1.9220349563620526E-04
(PID.TID 0000.0001) %MON trcstat_ptracer2k_del2       =   2.8102895480006887E-07
(PID.TID 0000.0001) %MON trcstat_ptracer2l_max        =   2.1176123510110609E-01
(PID.TID 0000.0001) %MON trcstat_ptracer2l_min        =   5.2998916287835206E-08
(PID.TID 0000.0001) %MON trcstat_ptracer2l_mean       =   2.5319099205725582E-04
(PID.TID 0000.0001) %MON trcstat_ptracer2l_sd         =   2.2353759360996773E-03
(PID.TID 0000.0001) %MON trcstat_ptracer2l_del2       =   3.1086979498113039E-06
(PID.TID 0000.0001) %MON trcstat_ptracer2m_max        =   2.1950322421621546E-01
(PID.TID 0000.0001) %MON trcstat_ptracer2m_min        =   4.5067533518735263E-08
(PID.TID 0000.0001) %MON trcstat_ptracer2m_mean       =   3.0885271577721330E-04
(PID.TID 0000.0001) %MON trcstat_ptracer2m_sd         =   2.6136013669288698E-03
(PID.TID 0000.0001) %MON trcstat_ptracer2m_del2       =   3.4810608347379694E-06
(PID.TID 0000.0001) %MON trcstat_ptracer2n_max        =   2.1118540225088536E-02
(PID.TID 0000.0001) %MON trcstat_ptracer2n_min        =   5.3064968417640563E-09
(PID.TID 0000.0001) %MON trcstat_ptracer2n_mean       =   1.9393469590642198E-05
(PID.TID 0000.0001) %MON trcstat_ptracer2n_sd         =   1.8688784589394926E-04
(PID.TID 0000.0001) %MON trcstat_ptracer2n_del2       =   2.7602625897271553E-07
(PID.TID 0000.0001) %MON trcstat_ptracer2o_max        =   2.1150796105987291E-01
(PID.TID 0000.0001) %MON trcstat_ptracer2o_min        =   5.4615221329622227E-08
(PID.TID 0000.0001) %MON trcstat_ptracer2o_mean       =   2.4644012632355411E-04
(PID.TID 0000.0001) %MON trcstat_ptracer2o_sd         =   2.1929896642100262E-03
(PID.TID 0000.0001) %MON trcstat_ptracer2o_del2       =   3.0610829344843601E-06
(PID.TID 0000.0001) %MON trcstat_ptracer2p_max        =   2.1183161804182654E-01
(PID.TID 0000.0001) %MON trcstat_ptracer2p_min        =   5.7474609657586195E-08
(PID.TID 0000.0001) %MON trcstat_ptracer2p_mean       =   2.7890001455080897E-04
(PID.TID 0000.0001) %MON trcstat_ptracer2p_sd         =   2.3878865396475529E-03
(PID.TID 0000.0001) %MON trcstat_ptracer2p_del2       =   3.2488461781875527E-06
(PID.TID 0000.0001) %MON trcstat_ptracer2q_max        =   2.1133729597959089E-02
(PID.TID 0000.0001) %MON trcstat_ptracer2q_min        =   5.5016161433459345E-09
(PID.TID 0000.0001) %MON trcstat_ptracer2q_mean       =   1.8558180302594118E-05
(PID.TID 0000.0001) %MON trcstat_ptracer2q_sd         =   1.8164375091820034E-04
(PID.TID 0000.0001) %MON trcstat_ptracer2q_del2       =   2.7150167566686687E-07
(PID.TID 0000.0001) %MON trcstat_ptracer2r_max        =   2.1164206721536361E-01
(PID.TID 0000.0001) %MON trcstat_ptracer2r_min        =   5.6892386212206702E-08
(PID.TID 0000.0001) %MON trcstat_ptracer2r_mean       =   2.3944908873122924E-04
(PID.TID 0000.0001) %MON trcstat_ptracer2r_sd         =   2.1508178384703346E-03
(PID.TID 0000.0001) %MON trcstat_ptracer2r_del2       =   3.0211891053394363E-06
(PID.TID 0000.0001) %MON trcstat_ptracer2s_max        =   2.1189797012900924E-01
(PID.TID 0000.0001) %MON trcstat_ptracer2s_min        =   6.0823814748337889E-08
(PID.TID 0000.0001) %MON trcstat_ptracer2s_mean       =   2.6762777282993643E-04
(PID.TID 0000.0001) %MON trcstat_ptracer2s_sd         =   2.3199564271342370E-03
(PID.TID 0000.0001) %MON trcstat_ptracer2s_del2       =   3.1867928962480157E-06
(PID.TID 0000.0001) %MON trcstat_ptracer2t_max        =   2.1145163592072944E-02
(PID.TID 0000.0001) %MON trcstat_ptracer2t_min        =   5.7793668575146855E-09
(PID.TID 0000.0001) %MON trcstat_ptracer2t_mean       =   1.7716178781459497E-05
(PID.TID 0000.0001) %MON trcstat_ptracer2t_sd         =   1.7629009820896603E-04
(PID.TID 0000.0001) %MON trcstat_ptracer2t_del2       =   2.6682926919722348E-07
(PID.TID 0000.0001) %MON trcstat_ptracer2u_max        =   2.1175253859868459E-01
(PID.TID 0000.0001) %MON trcstat_ptracer2u_min        =   6.0091319368265981E-08
(PID.TID 0000.0001) %MON trcstat_ptracer2u_mean       =   2.3215952755486184E-04
(PID.TID 0000.0001) %MON trcstat_ptracer2u_sd         =   2.1064354872631810E-03
(PID.TID 0000.0001) %MON trcstat_ptracer2u_del2       =   2.9793365523943854E-06
(PID.TID 0000.0001) %MON trcstat_ptracer2v_max        =   2.1192886841054839E-01
(PID.TID 0000.0001) %MON trcstat_ptracer2v_min        =   6.5517342553433024E-08
(PID.TID 0000.0001) %MON trcstat_ptracer2v_mean       =   2.6072880403654497E-04
(PID.TID 0000.0001) %MON trcstat_ptracer2v_sd         =   2.2801783431862562E-03
(PID.TID 0000.0001) %MON trcstat_ptracer2v_del2       =   3.1490624362887329E-06
(PID.TID 0000.0001) %MON trcstat_ptracer2w_max        =   2.1149521768076520E-02
(PID.TID 0000.0001) %MON trcstat_ptracer2w_min        =   6.1722904414422712E-09
(PID.TID 0000.0001) %MON trcstat_ptracer2w_mean       =   1.6871375871610720E-05
(PID.TID 0000.0001) %MON trcstat_ptracer2w_sd         =   1.7085104483908952E-04
(PID.TID 0000.0001) %MON trcstat_ptracer2w_del2       =   2.6202371922970131E-07
(PID.TID 0000.0001) %MON trcstat_ptracer2x_max        =   2.1183985551308526E-01
(PID.TID 0000.0001) %MON trcstat_ptracer2x_min        =   6.4578737518060912E-08
(PID.TID 0000.0001) %MON trcstat_ptracer2x_mean       =   2.2459909126061614E-04
(PID.TID 0000.0001) %MON trcstat_ptracer2x_sd         =   2.0599064417150840E-03
(PID.TID 0000.0001) %MON trcstat_ptracer2x_del2       =   2.9350402664627383E-06
(PID.TID 0000.0001) %MON trcstat_ptracer2y_max        =   2.1199040485485326E-01
(PID.TID 0000.0001) %MON trcstat_ptracer2y_min        =   7.2094913052633198E-08
(PID.TID 0000.0001) %MON trcstat_ptracer2y_mean       =   2.5435410940335149E-04
(PID.TID 0000.0001) %MON trcstat_ptracer2y_sd         =   2.2412549133220541E-03
(PID.TID 0000.0001) %MON trcstat_ptracer2y_del2       =   3.1090287363829096E-06
(PID.TID 0000.0001) %MON trcstat_ptracer2z_max        =   2.1188404672177480E-01
(PID.TID 0000.0001) %MON trcstat_ptracer2z_min        =   7.0867066122069091E-08
(PID.TID 0000.0001) %MON trcstat_ptracer2z_mean       =   2.1680347936353962E-04
(PID.TID 0000.0001) %MON trcstat_ptracer2z_sd         =   2.0113930284060906E-03
(PID.TID 0000.0001) %MON trcstat_ptracer2z_del2       =   2.8883773387532316E-06
(PID.TID 0000.0001) %MON trcstat_ptracer2A_max        =   2.1213266349690874E-01
(PID.TID 0000.0001) %MON trcstat_ptracer2A_min        =   8.1318223858165437E-08
(PID.TID 0000.0001) %MON trcstat_ptracer2A_mean       =   2.4775651718063108E-04
(PID.TID 0000.0001) %MON trcstat_ptracer2A_sd         =   2.2006939383106407E-03
(PID.TID 0000.0001) %MON trcstat_ptracer2A_del2       =   3.0678009295905463E-06
(PID.TID 0000.0001) %MON trcstat_ptracer2B_max        =   2.1201182045078837E-01
(PID.TID 0000.0001) %MON trcstat_ptracer2B_min        =   9.4262317049216544E-08
(PID.TID 0000.0001) %MON trcstat_ptracer2B_mean       =   2.4079518466069624E-04
(PID.TID 0000.0001) %MON trcstat_ptracer2B_sd         =   2.1565269294897423E-03
(PID.TID 0000.0001) %MON trcstat_ptracer2B_del2       =   3.0195801775568041E-06
(PID.TID 0000.0001) %MON trcstat_ptracer2C_max        =   2.1179931838603686E-01
(PID.TID 0000.0001) %MON trcstat_ptracer2C_min        =   1.1246267161740388E-07
(PID.TID 0000.0001) %MON trcstat_ptracer2C_mean       =   2.3353206747047018E-04
(PID.TID 0000.0001) %MON trcstat_ptracer2C_sd         =   2.1097287747008056E-03
(PID.TID 0000.0001) %MON trcstat_ptracer2C_del2       =   2.9674888233798212E-06
(PID.TID 0000.0001) %MON trcstat_ptracer2D_max        =   2.1146569373673990E-01
(PID.TID 0000.0001) %MON trcstat_ptracer2D_min        =   1.4122900002223988E-07
(PID.TID 0000.0001) %MON trcstat_ptracer2D_mean       =   2.2599750199298545E-04
(PID.TID 0000.0001) %MON trcstat_ptracer2D_sd         =   2.0602199512003336E-03
(PID.TID 0000.0001) %MON trcstat_ptracer2D_del2       =   2.9111466638314221E-06
(PID.TID 0000.0001) // =======================================================
(PID.TID 0000.0001) // End MONITOR ptracers field statistics
(PID.TID 0000.0001) // =======================================================
 Compute Stats, Diag. #   3209  PP        vol(   0 ): 1.326E+18  Parms: SM P    MR      
 Compute Stats, Diag. #   3210  Nfix      vol(   0 ): 1.326E+18  Parms: SM P    MR      
 Compute Stats, Diag. #   3211  Denit     vol(   0 ): 1.326E+18  Parms: SM P    MR      
(PID.TID 0000.0001) DIAGSTATS_CLOSE_IO: close file: statsPP.0000000000.txt , unit=     9
(PID.TID 0000.0001) DIAGSTATS_CLOSE_IO: close file: statsNfix.0000000000.txt , unit=    10
(PID.TID 0000.0001) DIAGSTATS_CLOSE_IO: close file: statsDenit.0000000000.txt , unit=    16
 prec           1          64
(PID.TID 0000.0001) %CHECKPOINT         4 ckptA
(PID.TID 0000.0001)   Seconds in section "ALL                    [THE_MODEL_MAIN]":
(PID.TID 0000.0001)           User time:   233.00999999999999
(PID.TID 0000.0001)         System time:   117.89000000000000
(PID.TID 0000.0001)     Wall clock time:   357.87771606445312
(PID.TID 0000.0001)          No. starts:           1
(PID.TID 0000.0001)           No. stops:           1
(PID.TID 0000.0001)   Seconds in section "INITIALISE_FIXED       [THE_MODEL_MAIN]":
(PID.TID 0000.0001)           User time:   8.0199999999999996
(PID.TID 0000.0001)         System time:  0.25000000000000000
(PID.TID 0000.0001)     Wall clock time:   8.5637500286102295
(PID.TID 0000.0001)          No. starts:           1
(PID.TID 0000.0001)           No. stops:           1
(PID.TID 0000.0001)   Seconds in section "THE_MAIN_LOOP          [THE_MODEL_MAIN]":
(PID.TID 0000.0001)           User time:   224.98999999999998
(PID.TID 0000.0001)         System time:   117.64000000000000
(PID.TID 0000.0001)     Wall clock time:   349.31262707710266
(PID.TID 0000.0001)          No. starts:           1
(PID.TID 0000.0001)           No. stops:           1
(PID.TID 0000.0001)   Seconds in section "INITIALISE_VARIA    [THE_MAIN_LOOP]":
(PID.TID 0000.0001)           User time:   117.23000000000000
(PID.TID 0000.0001)         System time:   112.21000000000001
(PID.TID 0000.0001)     Wall clock time:   230.06754112243652
(PID.TID 0000.0001)          No. starts:           1
(PID.TID 0000.0001)           No. stops:           1
(PID.TID 0000.0001)   Seconds in section "MAIN LOOP           [THE_MAIN_LOOP]":
(PID.TID 0000.0001)           User time:   107.75999999999999
(PID.TID 0000.0001)         System time:   5.4299999999999926
(PID.TID 0000.0001)     Wall clock time:   119.24505281448364
(PID.TID 0000.0001)          No. starts:           1
(PID.TID 0000.0001)           No. stops:           1
(PID.TID 0000.0001)   Seconds in section "MAIN_DO_LOOP        [THE_MAIN_LOOP]":
(PID.TID 0000.0001)           User time:   107.75999999999996
(PID.TID 0000.0001)         System time:   5.4299999999999926
(PID.TID 0000.0001)     Wall clock time:   119.24500179290771
(PID.TID 0000.0001)          No. starts:           4
(PID.TID 0000.0001)           No. stops:           4
(PID.TID 0000.0001)   Seconds in section "FORWARD_STEP        [MAIN_DO_LOOP]":
(PID.TID 0000.0001)           User time:   107.75999999999996
(PID.TID 0000.0001)         System time:   5.4299999999999926
(PID.TID 0000.0001)     Wall clock time:   119.24492073059082
(PID.TID 0000.0001)          No. starts:           4
(PID.TID 0000.0001)           No. stops:           4
(PID.TID 0000.0001)   Seconds in section "DO_STATEVARS_DIAGS  [FORWARD_STEP]":
(PID.TID 0000.0001)           User time:  0.41999999999995907
(PID.TID 0000.0001)         System time:   0.0000000000000000
(PID.TID 0000.0001)     Wall clock time:  0.42747282981872559
(PID.TID 0000.0001)          No. starts:           8
(PID.TID 0000.0001)           No. stops:           8
(PID.TID 0000.0001)   Seconds in section "LOAD_FIELDS_DRIVER  [FORWARD_STEP]":
(PID.TID 0000.0001)           User time:  0.10000000000002274
(PID.TID 0000.0001)         System time:   0.0000000000000000
(PID.TID 0000.0001)     Wall clock time:  0.10304403305053711
(PID.TID 0000.0001)          No. starts:           4
(PID.TID 0000.0001)           No. stops:           4
(PID.TID 0000.0001)   Seconds in section "EXF_GETFORCING     [LOAD_FLDS_DRIVER]":
(PID.TID 0000.0001)           User time:   6.0000000000030695E-002
(PID.TID 0000.0001)         System time:   0.0000000000000000
(PID.TID 0000.0001)     Wall clock time:   6.3485860824584961E-002
(PID.TID 0000.0001)          No. starts:           4
(PID.TID 0000.0001)           No. stops:           4
(PID.TID 0000.0001)   Seconds in section "EXTERNAL_FLDS_LOAD [LOAD_FLDS_DRIVER]":
(PID.TID 0000.0001)           User time:   0.0000000000000000
(PID.TID 0000.0001)         System time:   0.0000000000000000
(PID.TID 0000.0001)     Wall clock time:   9.5081329345703125E-004
(PID.TID 0000.0001)          No. starts:           4
(PID.TID 0000.0001)           No. stops:           4
(PID.TID 0000.0001)   Seconds in section "OFFLINE_FLDS_LOAD  [LOAD_FLDS_DRIVER]":
(PID.TID 0000.0001)           User time:   4.0000000000020464E-002
(PID.TID 0000.0001)         System time:   0.0000000000000000
(PID.TID 0000.0001)     Wall clock time:   3.7573099136352539E-002
(PID.TID 0000.0001)          No. starts:           4
(PID.TID 0000.0001)           No. stops:           4
(PID.TID 0000.0001)   Seconds in section "DO_ATMOSPHERIC_PHYS [FORWARD_STEP]":
(PID.TID 0000.0001)           User time:   0.0000000000000000
(PID.TID 0000.0001)         System time:   0.0000000000000000
(PID.TID 0000.0001)     Wall clock time:   4.1961669921875000E-005
(PID.TID 0000.0001)          No. starts:           4
(PID.TID 0000.0001)           No. stops:           4
(PID.TID 0000.0001)   Seconds in section "DO_OCEANIC_PHYS     [FORWARD_STEP]":
(PID.TID 0000.0001)           User time:   3.9999999999992042E-002
(PID.TID 0000.0001)         System time:   0.0000000000000000
(PID.TID 0000.0001)     Wall clock time:   2.6692867279052734E-002
(PID.TID 0000.0001)          No. starts:           4
(PID.TID 0000.0001)           No. stops:           4
(PID.TID 0000.0001)   Seconds in section "GCHEM_CALC_TENDENCY [FORWARD_STEP]":
(PID.TID 0000.0001)           User time:   0.0000000000000000
(PID.TID 0000.0001)         System time:   0.0000000000000000
(PID.TID 0000.0001)     Wall clock time:   4.1007995605468750E-005
(PID.TID 0000.0001)          No. starts:           4
(PID.TID 0000.0001)           No. stops:           4
(PID.TID 0000.0001)   Seconds in section "THERMODYNAMICS      [FORWARD_STEP]":
(PID.TID 0000.0001)           User time:   60.949999999999989
(PID.TID 0000.0001)         System time:   2.2599999999999909
(PID.TID 0000.0001)     Wall clock time:   63.537086248397827
(PID.TID 0000.0001)          No. starts:           4
(PID.TID 0000.0001)           No. stops:           4
(PID.TID 0000.0001)   Seconds in section "TRC_CORRECTION_STEP [FORWARD_STEP]":
(PID.TID 0000.0001)           User time:  0.50000000000002842
(PID.TID 0000.0001)         System time:   0.0000000000000000
(PID.TID 0000.0001)     Wall clock time:  0.49896407127380371
(PID.TID 0000.0001)          No. starts:           4
(PID.TID 0000.0001)           No. stops:           4
(PID.TID 0000.0001)   Seconds in section "GCHEM_FORCING_SEP  [FORWARD_STEP]":
(PID.TID 0000.0001)           User time:   20.919999999999987
(PID.TID 0000.0001)         System time:   2.0000000000010232E-002
(PID.TID 0000.0001)     Wall clock time:   21.005888938903809
(PID.TID 0000.0001)          No. starts:           4
(PID.TID 0000.0001)           No. stops:           4
(PID.TID 0000.0001)   Seconds in section "GCHEM_DIAGNOSTICS [GCHEM_FORCING_SEP]":
(PID.TID 0000.0001)           User time:   0.0000000000000000
(PID.TID 0000.0001)         System time:   0.0000000000000000
(PID.TID 0000.0001)     Wall clock time:   4.3778419494628906E-003
(PID.TID 0000.0001)          No. starts:           4
(PID.TID 0000.0001)           No. stops:           4
(PID.TID 0000.0001)   Seconds in section "GCHEM_OFFLINE [GCHEM_FORCING_SEP]":
(PID.TID 0000.0001)           User time:   0.0000000000000000
(PID.TID 0000.0001)         System time:   0.0000000000000000
(PID.TID 0000.0001)     Wall clock time:   2.3221969604492188E-004
(PID.TID 0000.0001)          No. starts:           4
(PID.TID 0000.0001)           No. stops:           4
(PID.TID 0000.0001)   Seconds in section "GUD_CONS [GCHEM_FORCING_SEP]":
(PID.TID 0000.0001)           User time:   13.020000000000010
(PID.TID 0000.0001)         System time:   1.0000000000005116E-002
(PID.TID 0000.0001)     Wall clock time:   13.085355758666992
(PID.TID 0000.0001)          No. starts:           8
(PID.TID 0000.0001)           No. stops:           8
(PID.TID 0000.0001)   Seconds in section "GCHEM_SURFMEAN [GCHEM_FORCING_SEP]":
(PID.TID 0000.0001)           User time:   0.0000000000000000
(PID.TID 0000.0001)         System time:   0.0000000000000000
(PID.TID 0000.0001)     Wall clock time:   6.6900253295898438E-004
(PID.TID 0000.0001)          No. starts:           4
(PID.TID 0000.0001)           No. stops:           4
(PID.TID 0000.0001)   Seconds in section "GUD_FORCING [GCHEM_FORCING_SEP]":
(PID.TID 0000.0001)           User time:   7.8999999999999773
(PID.TID 0000.0001)         System time:   1.0000000000005116E-002
(PID.TID 0000.0001)     Wall clock time:   7.9149637222290039
(PID.TID 0000.0001)          No. starts:           4
(PID.TID 0000.0001)           No. stops:           4
(PID.TID 0000.0001)   Seconds in section "GUD_LIGHT [GUD_FORCING]":
(PID.TID 0000.0001)           User time:   3.9999999999963620E-002
(PID.TID 0000.0001)         System time:   0.0000000000000000
(PID.TID 0000.0001)     Wall clock time:   3.1801223754882812E-002
(PID.TID 0000.0001)          No. starts:           4
(PID.TID 0000.0001)           No. stops:           4
(PID.TID 0000.0001)   Seconds in section "GUD_SURFFORCING [GUD_FORCING]":
(PID.TID 0000.0001)           User time:  0.25000000000000000
(PID.TID 0000.0001)         System time:   0.0000000000000000
(PID.TID 0000.0001)     Wall clock time:  0.26833891868591309
(PID.TID 0000.0001)          No. starts:           4
(PID.TID 0000.0001)           No. stops:           4
(PID.TID 0000.0001)   Seconds in section "GUD_FE_CHEM [GUD_FORCING]":
(PID.TID 0000.0001)           User time:   4.0000000000020464E-002
(PID.TID 0000.0001)         System time:   0.0000000000000000
(PID.TID 0000.0001)     Wall clock time:   3.3615589141845703E-002
(PID.TID 0000.0001)          No. starts:           8
(PID.TID 0000.0001)           No. stops:           8
(PID.TID 0000.0001)   Seconds in section "GUD_FE_DUST [GUD_FORCING]":
(PID.TID 0000.0001)           User time:   0.0000000000000000
(PID.TID 0000.0001)         System time:   0.0000000000000000
(PID.TID 0000.0001)     Wall clock time:   1.8882751464843750E-004
(PID.TID 0000.0001)          No. starts:           4
(PID.TID 0000.0001)           No. stops:           4
(PID.TID 0000.0001)   Seconds in section "GUD_FE_SCAV [GUD_FORCING]":
(PID.TID 0000.0001)           User time:   0.0000000000000000
(PID.TID 0000.0001)         System time:   0.0000000000000000
(PID.TID 0000.0001)     Wall clock time:   1.7088174819946289E-002
(PID.TID 0000.0001)          No. starts:           4
(PID.TID 0000.0001)           No. stops:           4
(PID.TID 0000.0001)   Seconds in section "GUD_FE_SED [GUD_FORCING]":
(PID.TID 0000.0001)           User time:   0.0000000000000000
(PID.TID 0000.0001)         System time:   0.0000000000000000
(PID.TID 0000.0001)     Wall clock time:   1.7797946929931641E-003
(PID.TID 0000.0001)          No. starts:           4
(PID.TID 0000.0001)           No. stops:           4
(PID.TID 0000.0001)   Seconds in section "GUD_MODEL [GUD_FORCING]":
(PID.TID 0000.0001)           User time:   4.9699999999999704
(PID.TID 0000.0001)         System time:   1.0000000000005116E-002
(PID.TID 0000.0001)     Wall clock time:   4.9737133979797363
(PID.TID 0000.0001)          No. starts:           4
(PID.TID 0000.0001)           No. stops:           4
(PID.TID 0000.0001)   Seconds in section "GUD_SINKING [GUD_FORCING]":
(PID.TID 0000.0001)           User time:   1.7200000000000273
(PID.TID 0000.0001)         System time:   0.0000000000000000
(PID.TID 0000.0001)     Wall clock time:   1.7178308963775635
(PID.TID 0000.0001)          No. starts:           4
(PID.TID 0000.0001)           No. stops:           4
(PID.TID 0000.0001)   Seconds in section "GUD_STEP [GUD_FORCING]":
(PID.TID 0000.0001)           User time:  0.58000000000001251
(PID.TID 0000.0001)         System time:   0.0000000000000000
(PID.TID 0000.0001)     Wall clock time:  0.57506394386291504
(PID.TID 0000.0001)          No. starts:           4
(PID.TID 0000.0001)           No. stops:           4
(PID.TID 0000.0001)   Seconds in section "DIAGS_FILL [GUD_FORCING]":
(PID.TID 0000.0001)           User time:   1.9999999999981810E-002
(PID.TID 0000.0001)         System time:   0.0000000000000000
(PID.TID 0000.0001)     Wall clock time:   1.6282320022583008E-002
(PID.TID 0000.0001)          No. starts:           4
(PID.TID 0000.0001)           No. stops:           4
(PID.TID 0000.0001)   Seconds in section "BLOCKING_EXCHANGES  [FORWARD_STEP]":
(PID.TID 0000.0001)           User time:  0.51000000000001933
(PID.TID 0000.0001)         System time:   0.0000000000000000
(PID.TID 0000.0001)     Wall clock time:  0.50644993782043457
(PID.TID 0000.0001)          No. starts:           4
(PID.TID 0000.0001)           No. stops:           4
(PID.TID 0000.0001)   Seconds in section "DO_STATEVARS_TAVE   [FORWARD_STEP]":
(PID.TID 0000.0001)           User time:  0.63999999999998636
(PID.TID 0000.0001)         System time:   0.0000000000000000
(PID.TID 0000.0001)     Wall clock time:  0.62775182723999023
(PID.TID 0000.0001)          No. starts:           4
(PID.TID 0000.0001)           No. stops:           4
(PID.TID 0000.0001)   Seconds in section "MONITOR             [FORWARD_STEP]":
(PID.TID 0000.0001)           User time:  0.19999999999998863
(PID.TID 0000.0001)         System time:   0.0000000000000000
(PID.TID 0000.0001)     Wall clock time:  0.20997285842895508
(PID.TID 0000.0001)          No. starts:           4
(PID.TID 0000.0001)           No. stops:           4
(PID.TID 0000.0001)   Seconds in section "DO_THE_MODEL_IO     [FORWARD_STEP]":
(PID.TID 0000.0001)           User time:   3.6200000000000330
(PID.TID 0000.0001)         System time:   0.0000000000000000
(PID.TID 0000.0001)     Wall clock time:   3.6260743141174316
(PID.TID 0000.0001)          No. starts:           4
(PID.TID 0000.0001)           No. stops:           4
(PID.TID 0000.0001)   Seconds in section "PTRACERS_RESET      [FORWARD_STEP]":
(PID.TID 0000.0001)           User time:   0.0000000000000000
(PID.TID 0000.0001)         System time:   0.0000000000000000
(PID.TID 0000.0001)     Wall clock time:   4.7922134399414062E-005
(PID.TID 0000.0001)          No. starts:           4
(PID.TID 0000.0001)           No. stops:           4
(PID.TID 0000.0001)   Seconds in section "DO_WRITE_PICKUP     [FORWARD_STEP]":
(PID.TID 0000.0001)           User time:   19.859999999999985
(PID.TID 0000.0001)         System time:   3.1499999999999915
(PID.TID 0000.0001)     Wall clock time:   28.674700975418091
(PID.TID 0000.0001)          No. starts:           4
(PID.TID 0000.0001)           No. stops:           4
(PID.TID 0000.0001) // ======================================================
(PID.TID 0000.0001) // Tile <-> Tile communication statistics
(PID.TID 0000.0001) // ======================================================
(PID.TID 0000.0001) // o Tile number: 000001
(PID.TID 0000.0001) //         No. X exchanges =              0
(PID.TID 0000.0001) //            Max. X spins =              0
(PID.TID 0000.0001) //            Min. X spins =     1000000000
(PID.TID 0000.0001) //          Total. X spins =              0
(PID.TID 0000.0001) //            Avg. X spins =       0.00E+00
(PID.TID 0000.0001) //         No. Y exchanges =              0
(PID.TID 0000.0001) //            Max. Y spins =              0
(PID.TID 0000.0001) //            Min. Y spins =     1000000000
(PID.TID 0000.0001) //          Total. Y spins =              0
(PID.TID 0000.0001) //            Avg. Y spins =       0.00E+00
(PID.TID 0000.0001) // o Thread number: 000001
(PID.TID 0000.0001) //            No. barriers =          38644
(PID.TID 0000.0001) //      Max. barrier spins =              1
(PID.TID 0000.0001) //      Min. barrier spins =              1
(PID.TID 0000.0001) //     Total barrier spins =          38644
(PID.TID 0000.0001) //      Avg. barrier spins =       1.00E+00
PROGRAM MAIN: Execution ended Normally
