(PID.TID 0000.0001) 
(PID.TID 0000.0001) // ======================================================
(PID.TID 0000.0001) //                      MITgcm UV
(PID.TID 0000.0001) //                      =========
(PID.TID 0000.0001) // ======================================================
(PID.TID 0000.0001) // execution environment starting up...
(PID.TID 0000.0001) 
(PID.TID 0000.0001) // Build user:        jahn
(PID.TID 0000.0001) // Build host:        saramago.mit.edu
(PID.TID 0000.0001) // Build date:        Thu Jun  6 15:10:19 EDT 2013
(PID.TID 0000.0001) 
(PID.TID 0000.0001) // =======================================================
(PID.TID 0000.0001) // Execution Environment parameter file "eedata"
(PID.TID 0000.0001) // =======================================================
(PID.TID 0000.0001) ># Example "eedata" file
(PID.TID 0000.0001) ># Lines beginning "#" are comments
(PID.TID 0000.0001) ># nTx - No. threads per process in X
(PID.TID 0000.0001) ># nTy - No. threads per process in Y
(PID.TID 0000.0001) > &EEPARMS
(PID.TID 0000.0001) > nTx=1,nTy=1
(PID.TID 0000.0001) > /
(PID.TID 0000.0001) ># Note: Some systems use & as the
(PID.TID 0000.0001) ># namelist terminator. Other systems
(PID.TID 0000.0001) ># use a / character (as shown here).
(PID.TID 0000.0001) 
(PID.TID 0000.0001) // =======================================================
(PID.TID 0000.0001) // Computational Grid Specification ( see files "SIZE.h" )
(PID.TID 0000.0001) //                                  ( and "eedata"       )
(PID.TID 0000.0001) // =======================================================
(PID.TID 0000.0001)      nPx =    1 ; /* No. processes in X */
(PID.TID 0000.0001)      nPy =    1 ; /* No. processes in Y */
(PID.TID 0000.0001)      nSx =    1 ; /* No. tiles in X per process */
(PID.TID 0000.0001)      nSy =    1 ; /* No. tiles in Y per process */
(PID.TID 0000.0001)      sNx =    1 ; /* Tile size in X */
(PID.TID 0000.0001)      sNy =    1 ; /* Tile size in Y */
(PID.TID 0000.0001)      OLx =    2 ; /* Tile overlap distance in X */
(PID.TID 0000.0001)      OLy =    2 ; /* Tile overlap distance in Y */
(PID.TID 0000.0001)      nTx =    1 ; /* No. threads in X per process */
(PID.TID 0000.0001)      nTy =    1 ; /* No. threads in Y per process */
(PID.TID 0000.0001)       Nr =   35 ; /* No. levels in the vertical   */
(PID.TID 0000.0001)       Nx =    1 ; /* Total domain size in X ( = nPx*nSx*sNx ) */
(PID.TID 0000.0001)       Ny =    1 ; /* Total domain size in Y ( = nPy*nSy*sNy ) */
(PID.TID 0000.0001)   nTiles =    1 ; /* Total no. tiles per process ( = nSx*nSy ) */
(PID.TID 0000.0001)   nProcs =    1 ; /* Total no. processes ( = nPx*nPy ) */
(PID.TID 0000.0001) nThreads =    1 ; /* Total no. threads per process ( = nTx*nTy ) */
(PID.TID 0000.0001) usingMPI =    F ; /* Flag used to control whether MPI is in use */
(PID.TID 0000.0001)                   /*  note: To execute a program with MPI calls */
(PID.TID 0000.0001)                   /*  it must be launched appropriately e.g     */
(PID.TID 0000.0001)                   /*  "mpirun -np 64 ......"                    */
(PID.TID 0000.0001) useCoupler=    F ;/* Flag used to control communications with   */
(PID.TID 0000.0001)                   /*  other model components, through a coupler */
(PID.TID 0000.0001) debugMode =    F ; /* print debug msg. (sequence of S/R calls)  */
(PID.TID 0000.0001) printMapIncludesZeros=    F ; /* print zeros in Std.Output maps */
(PID.TID 0000.0001) maxLengthPrt1D=   65 /* maxLength of 1D array printed to StdOut */
(PID.TID 0000.0001) 
(PID.TID 0000.0001) // ======================================================
(PID.TID 0000.0001) // Mapping of tiles to threads
(PID.TID 0000.0001) // ======================================================
(PID.TID 0000.0001) // -o- Thread   1, tiles (   1:   1,   1:   1)
(PID.TID 0000.0001) 
(PID.TID 0000.0001) // ======================================================
(PID.TID 0000.0001) // Tile <-> Tile connectvity table
(PID.TID 0000.0001) // ======================================================
(PID.TID 0000.0001) // Tile number: 000001 (process no. = 000000)
(PID.TID 0000.0001) //        WEST: Tile = 000001, Process = 000000, Comm = put
(PID.TID 0000.0001) //                bi = 000001, bj = 000001
(PID.TID 0000.0001) //        EAST: Tile = 000001, Process = 000000, Comm = put
(PID.TID 0000.0001) //                bi = 000001, bj = 000001
(PID.TID 0000.0001) //       SOUTH: Tile = 000001, Process = 000000, Comm = put
(PID.TID 0000.0001) //                bi = 000001, bj = 000001
(PID.TID 0000.0001) //       NORTH: Tile = 000001, Process = 000000, Comm = put
(PID.TID 0000.0001) //                bi = 000001, bj = 000001
(PID.TID 0000.0001) 
(PID.TID 0000.0001)  INI_PARMS: opening model parameter file "data"
(PID.TID 0000.0001)  OPEN_COPY_DATA_FILE: opening file data
(PID.TID 0000.0001) // =======================================================
(PID.TID 0000.0001) // Parameter file "data"
(PID.TID 0000.0001) // =======================================================
(PID.TID 0000.0001) >#
(PID.TID 0000.0001) ># ******************************
(PID.TID 0000.0001) ># Model parameters
(PID.TID 0000.0001) ># Continuous equation parameters
(PID.TID 0000.0001) ># ******************************
(PID.TID 0000.0001) >&PARM01
(PID.TID 0000.0001) >tRef= 26.5, 26.1, 26., 25.5, 25.4, 24.9, 24.5, 24.0, 23.7,
(PID.TID 0000.0001) >      23.3, 23.1, 22.8, 22.5, 22.1, 21.6, 20.6, 19.5, 18.4,
(PID.TID 0000.0001) >      17.3, 16.6, 15.5, 14.6, 13.8, 13.1, 11.6, 10.1, 7.7,
(PID.TID 0000.0001) >      5.3, 4.1, 3.7, 3.7, 3.4, 3.0, 2.8, 2.6,
(PID.TID 0000.0001) >sRef= 35*35.00,
(PID.TID 0000.0001) >no_slip_sides=.false.,
(PID.TID 0000.0001) >no_slip_bottom=.TRUE.,
(PID.TID 0000.0001) >viscAz=0.e0,
(PID.TID 0000.0001) >viscAh=0.e0,
(PID.TID 0000.0001) >diffKhT=1.E2,
(PID.TID 0000.0001) >diffKzT=1.E-4,
(PID.TID 0000.0001) >diffKhS=0.D0,
(PID.TID 0000.0001) >diffKzS=0.D0,
(PID.TID 0000.0001) >beta=1.E-11,
(PID.TID 0000.0001) >tAlpha=2.E-4,
(PID.TID 0000.0001) >sBeta =7.4E-4,
(PID.TID 0000.0001) >gravity=9.81,
(PID.TID 0000.0001) >gBaro=9.81,
(PID.TID 0000.0001) >rigidLid=.TRUE.,
(PID.TID 0000.0001) >implicitFreeSurface=.false.,
(PID.TID 0000.0001) >eosType='JMD95Z',
(PID.TID 0000.0001) >saltStepping=.FALSE.,
(PID.TID 0000.0001) >tempStepping=.TRUE.,
(PID.TID 0000.0001) >tempAdvection=.TRUE.,
(PID.TID 0000.0001) >momStepping=.FALSE.,
(PID.TID 0000.0001) >implicitDiffusion=.true.,
(PID.TID 0000.0001) >implicitViscosity=.false.,
(PID.TID 0000.0001) >allowFreezing=.false.,
(PID.TID 0000.0001) >useSingleCpuIO=.TRUE.,
(PID.TID 0000.0001) >useCDscheme=.FALSE.,
(PID.TID 0000.0001) >tempAdvScheme = 3,
(PID.TID 0000.0001) >saltAdvScheme = 3,
(PID.TID 0000.0001) >writeBinaryPrec= 64,
(PID.TID 0000.0001) >/
(PID.TID 0000.0001) >
(PID.TID 0000.0001) ># **************************
(PID.TID 0000.0001) ># Elliptic solver parameters
(PID.TID 0000.0001) ># **************************
(PID.TID 0000.0001) >&PARM02
(PID.TID 0000.0001) >cg2dMaxIters=300,
(PID.TID 0000.0001) >cg2dTargetResidual=1.E-7,
(PID.TID 0000.0001) >/
(PID.TID 0000.0001) >
(PID.TID 0000.0001) ># ************************
(PID.TID 0000.0001) ># Time stepping parameters
(PID.TID 0000.0001) ># ************************
(PID.TID 0000.0001) >&PARM03
(PID.TID 0000.0001) > nIter0=0,
(PID.TID 0000.0001) >#nTimeSteps=86400,
(PID.TID 0000.0001) > nTimeSteps=4,
(PID.TID 0000.0001) > deltaTmom= 3600.,
(PID.TID 0000.0001) > deltaTtracer= 3600.,
(PID.TID 0000.0001) > deltaTClock = 3600.,
(PID.TID 0000.0001) > cAdjFreq    = -1.,
(PID.TID 0000.0001) > abEps=0.1,
(PID.TID 0000.0001) > pChkptFreq  = 31104000.0,
(PID.TID 0000.0001) > chkptFreq   = 31104000.0,
(PID.TID 0000.0001) > dumpFreq = 3600.,
(PID.TID 0000.0001) > dumpInitAndLast = .TRUE.,
(PID.TID 0000.0001) > taveFreq    = 2592000.,
(PID.TID 0000.0001) >#monitorFreq = 2592000.,
(PID.TID 0000.0001) > monitorFreq = 1.,
(PID.TID 0000.0001) > tauThetaClimRelax=259200.,
(PID.TID 0000.0001) > tauSaltClimRelax=0.,
(PID.TID 0000.0001) > periodicExternalForcing=.TRUE.,
(PID.TID 0000.0001) > externForcingPeriod=2592000.,
(PID.TID 0000.0001) > externForcingCycle=31104000.,
(PID.TID 0000.0001) >/
(PID.TID 0000.0001) >
(PID.TID 0000.0001) ># *******************
(PID.TID 0000.0001) ># Gridding parameters
(PID.TID 0000.0001) ># *******************
(PID.TID 0000.0001) >&PARM04
(PID.TID 0000.0001) >usingCartesianGrid=.FALSE.,
(PID.TID 0000.0001) >usingSphericalPolarGrid=.TRUE.,
(PID.TID 0000.0001) >delX=1*1.E0,
(PID.TID 0000.0001) >delY=1*1.E0,
(PID.TID 0000.0001) >delZ=14*10, 5*15, 4*20, 2*50, 100, 2*150, 200, 300, 3*400, 2*500,
(PID.TID 0000.0001) >xgOrigin=335,
(PID.TID 0000.0001) >ygOrigin=-18.,
(PID.TID 0000.0001) >/
(PID.TID 0000.0001) >
(PID.TID 0000.0001) ># **********
(PID.TID 0000.0001) ># Data Files
(PID.TID 0000.0001) ># **********
(PID.TID 0000.0001) >&PARM05
(PID.TID 0000.0001) >bathyFile=       '../input/input/bathyneg.bin',
(PID.TID 0000.0001) >hydrogThetaFile= '../input/input/loc1_temp_janprof.bin',
(PID.TID 0000.0001) >hydrogSaltFile=  '../input/input/salt_uniform.bin',
(PID.TID 0000.0001) >zonalWindFile=   '',
(PID.TID 0000.0001) >meridWindFile=   '',
(PID.TID 0000.0001) >thetaClimFile=   '../input/input/loc1_temp_monsurf.bin',
(PID.TID 0000.0001) >saltClimFile=    '',
(PID.TID 0000.0001) >surfQFile=       '',
(PID.TID 0000.0001) >EmPmRFile=       '',
(PID.TID 0000.0001) >/
(PID.TID 0000.0001) 
(PID.TID 0000.0001)  INI_PARMS ; starts to read PARM01
(PID.TID 0000.0001)  INI_PARMS ; read PARM01 : OK
(PID.TID 0000.0001)  INI_PARMS ; starts to read PARM02
(PID.TID 0000.0001)  INI_PARMS ; read PARM02 : OK
(PID.TID 0000.0001)  INI_PARMS ; starts to read PARM03
(PID.TID 0000.0001)  INI_PARMS ; read PARM03 : OK
(PID.TID 0000.0001)  INI_PARMS ; starts to read PARM04
(PID.TID 0000.0001)  INI_PARMS ; read PARM04 : OK
(PID.TID 0000.0001)  INI_PARMS ; starts to read PARM05
(PID.TID 0000.0001)  INI_PARMS ; read PARM05 : OK
(PID.TID 0000.0001)  INI_PARMS: finished reading file "data"
(PID.TID 0000.0001)  PACKAGES_BOOT: opening data.pkg
(PID.TID 0000.0001)  OPEN_COPY_DATA_FILE: opening file data.pkg
(PID.TID 0000.0001) // =======================================================
(PID.TID 0000.0001) // Parameter file "data.pkg"
(PID.TID 0000.0001) // =======================================================
(PID.TID 0000.0001) ># Packages
(PID.TID 0000.0001) > &PACKAGES
(PID.TID 0000.0001) > usePTRACERS=.TRUE.
(PID.TID 0000.0001) > useGCHEM=.TRUE.,
(PID.TID 0000.0001) > useEXF=.TRUE.
(PID.TID 0000.0001) > useCAL=.TRUE.
(PID.TID 0000.0001) > useKPP=.FALSE.,
(PID.TID 0000.0001) > useMNC=.TRUE.,
(PID.TID 0000.0001) > useDIAGNOSTICS=.TRUE.,
(PID.TID 0000.0001) > /
(PID.TID 0000.0001) 
(PID.TID 0000.0001)  PACKAGES_BOOT: finished reading data.pkg
(PID.TID 0000.0001)  MNC_READPARMS: opening file 'data.mnc'
(PID.TID 0000.0001)  OPEN_COPY_DATA_FILE: opening file data.mnc
(PID.TID 0000.0001) // =======================================================
(PID.TID 0000.0001) // Parameter file "data.mnc"
(PID.TID 0000.0001) // =======================================================
(PID.TID 0000.0001) ># Example "data.mnc" file
(PID.TID 0000.0001) ># Lines beginning "#" are comments
(PID.TID 0000.0001) > &MNC_01
(PID.TID 0000.0001) ># mnc_echo_gvtypes=.FALSE.,
(PID.TID 0000.0001) ># mnc_use_indir=.FALSE.,
(PID.TID 0000.0001) ># mnc_use_outdir=.TRUE.,
(PID.TID 0000.0001) > mnc_outdir_str='dar1d_',
(PID.TID 0000.0001) > mnc_outdir_date=.TRUE.,
(PID.TID 0000.0001) > monitor_mnc=.FALSE.,
(PID.TID 0000.0001) > snapshot_mnc=.TRUE.,
(PID.TID 0000.0001) > timeave_mnc=.TRUE.,
(PID.TID 0000.0001) > pickup_read_mnc=.FALSE.,
(PID.TID 0000.0001) > pickup_write_mnc=.FALSE.,
(PID.TID 0000.0001) > /
(PID.TID 0000.0001) ># Note: Some systems use & as the
(PID.TID 0000.0001) ># namelist terminator. Other systems
(PID.TID 0000.0001) ># use a / character.
(PID.TID 0000.0001) 
(PID.TID 0000.0001)  MNC_READPARMS: finished reading data.mnc
(PID.TID 0000.0001) CAL_READPARMS: opening data.cal
(PID.TID 0000.0001)  OPEN_COPY_DATA_FILE: opening file data.cal
(PID.TID 0000.0001) // =======================================================
(PID.TID 0000.0001) // Parameter file "data.cal"
(PID.TID 0000.0001) // =======================================================
(PID.TID 0000.0001) >#
(PID.TID 0000.0001) ># *******************
(PID.TID 0000.0001) ># Calendar Parameters
(PID.TID 0000.0001) ># *******************
(PID.TID 0000.0001) > &CAL_NML
(PID.TID 0000.0001) > TheCalendar='model',
(PID.TID 0000.0001) > startDate_1=19920101,
(PID.TID 0000.0001) > startDate_2=000000,
(PID.TID 0000.0001) > calendarDumps = .TRUE.
(PID.TID 0000.0001) > /
(PID.TID 0000.0001) 
(PID.TID 0000.0001) CAL_READPARMS: finished reading data.cal
(PID.TID 0000.0001) EXF_READPARMS: opening data.exf
(PID.TID 0000.0001)  OPEN_COPY_DATA_FILE: opening file data.exf
(PID.TID 0000.0001) // =======================================================
(PID.TID 0000.0001) // Parameter file "data.exf"
(PID.TID 0000.0001) // =======================================================
(PID.TID 0000.0001) ># *********************
(PID.TID 0000.0001) ># External Forcing Data
(PID.TID 0000.0001) ># *********************
(PID.TID 0000.0001) >#
(PID.TID 0000.0001) > &EXF_NML_01
(PID.TID 0000.0001) > exf_albedo        = 0.15,
(PID.TID 0000.0001) > exf_iprec         = 32,
(PID.TID 0000.0001) > exf_yftype        = 'RL',
(PID.TID 0000.0001) > useExfYearlyFields= .TRUE.,
(PID.TID 0000.0001) > twoDigitYear      = .TRUE.,
(PID.TID 0000.0001) > useExfCheckRange  = .FALSE.,
(PID.TID 0000.0001) > /
(PID.TID 0000.0001) >#
(PID.TID 0000.0001) > &EXF_NML_02
(PID.TID 0000.0001) > /
(PID.TID 0000.0001) >#
(PID.TID 0000.0001) > &EXF_NML_03
(PID.TID 0000.0001) > /
(PID.TID 0000.0001) >#
(PID.TID 0000.0001) > &EXF_NML_04
(PID.TID 0000.0001) > /
(PID.TID 0000.0001) >#
(PID.TID 0000.0001) > &EXF_NML_OBCS
(PID.TID 0000.0001) > /
(PID.TID 0000.0001) 
(PID.TID 0000.0001) EXF_READPARMS: reading EXF_NML_01
(PID.TID 0000.0001) EXF_READPARMS: reading EXF_NML_02
(PID.TID 0000.0001) EXF_READPARMS: reading EXF_NML_03
(PID.TID 0000.0001) EXF_READPARMS: finished reading data.exf
(PID.TID 0000.0001)  PTRACERS_READPARMS: opening data.ptracers
(PID.TID 0000.0001)  OPEN_COPY_DATA_FILE: opening file data.ptracers
(PID.TID 0000.0001) // =======================================================
(PID.TID 0000.0001) // Parameter file "data.ptracers"
(PID.TID 0000.0001) // =======================================================
(PID.TID 0000.0001) > &PTRACERS_PARM01
(PID.TID 0000.0001) > PTRACERS_numInUse= 97,
(PID.TID 0000.0001) > PTRACERS_Iter0= 0,
(PID.TID 0000.0001) > PTRACERS_advScheme= 97*33,
(PID.TID 0000.0001) > PTRACERS_diffKh=    97*0.E3,
(PID.TID 0000.0001) > PTRACERS_diffKr=    97*1.E-5,
(PID.TID 0000.0001) > PTRACERS_useGMRedi= 97*.FALSE. ,
(PID.TID 0000.0001) > PTRACERS_useKPP=    97*.FALSE. ,
(PID.TID 0000.0001) >#
(PID.TID 0000.0001) > PTRACERS_names(1)= 'DIC',
(PID.TID 0000.0001) > PTRACERS_names(2)= 'NH4',
(PID.TID 0000.0001) > PTRACERS_names(3)= 'NO2',
(PID.TID 0000.0001) > PTRACERS_names(4)= 'NO3',
(PID.TID 0000.0001) > PTRACERS_names(5)= 'PO4',
(PID.TID 0000.0001) > PTRACERS_names(6)= 'SiO2',
(PID.TID 0000.0001) > PTRACERS_names(7)= 'FeT',
(PID.TID 0000.0001) > PTRACERS_names(8)= 'DOC',
(PID.TID 0000.0001) > PTRACERS_names(9)= 'DON',
(PID.TID 0000.0001) > PTRACERS_names(10)= 'DOP',
(PID.TID 0000.0001) > PTRACERS_names(11)= 'DOFe',
(PID.TID 0000.0001) > PTRACERS_names(12)= 'POC',
(PID.TID 0000.0001) > PTRACERS_names(13)= 'PON',
(PID.TID 0000.0001) > PTRACERS_names(14)= 'POP',
(PID.TID 0000.0001) > PTRACERS_names(15)= 'POSi',
(PID.TID 0000.0001) > PTRACERS_names(16)= 'POFe',
(PID.TID 0000.0001) > PTRACERS_names(17)= 'PIC',
(PID.TID 0000.0001) > PTRACERS_names(18)= 'c01',
(PID.TID 0000.0001) > PTRACERS_names(19)= 'c02',
(PID.TID 0000.0001) > PTRACERS_names(20)= 'c03',
(PID.TID 0000.0001) > PTRACERS_names(21)= 'c04',
(PID.TID 0000.0001) > PTRACERS_names(22)= 'c05',
(PID.TID 0000.0001) > PTRACERS_names(23)= 'c06',
(PID.TID 0000.0001) > PTRACERS_names(24)= 'c07',
(PID.TID 0000.0001) > PTRACERS_names(25)= 'c08',
(PID.TID 0000.0001) > PTRACERS_names(26)= 'c09',
(PID.TID 0000.0001) > PTRACERS_names(27)= 'c10',
(PID.TID 0000.0001) > PTRACERS_names(28)= 'c11',
(PID.TID 0000.0001) > PTRACERS_names(29)= 'c12',
(PID.TID 0000.0001) > PTRACERS_names(30)= 'c13',
(PID.TID 0000.0001) > PTRACERS_names(31)= 'c14',
(PID.TID 0000.0001) > PTRACERS_names(32)= 'c15',
(PID.TID 0000.0001) > PTRACERS_names(33)= 'c16',
(PID.TID 0000.0001) > PTRACERS_names(34)= 'c17',
(PID.TID 0000.0001) > PTRACERS_names(35)= 'c18',
(PID.TID 0000.0001) > PTRACERS_names(36)= 'c19',
(PID.TID 0000.0001) > PTRACERS_names(37)= 'c20',
(PID.TID 0000.0001) > PTRACERS_names(38)= 'c21',
(PID.TID 0000.0001) > PTRACERS_names(39)= 'c22',
(PID.TID 0000.0001) > PTRACERS_names(40)= 'c23',
(PID.TID 0000.0001) > PTRACERS_names(41)= 'c24',
(PID.TID 0000.0001) > PTRACERS_names(42)= 'c25',
(PID.TID 0000.0001) > PTRACERS_names(43)= 'c26',
(PID.TID 0000.0001) > PTRACERS_names(44)= 'c27',
(PID.TID 0000.0001) > PTRACERS_names(45)= 'c28',
(PID.TID 0000.0001) > PTRACERS_names(46)= 'c29',
(PID.TID 0000.0001) > PTRACERS_names(47)= 'c30',
(PID.TID 0000.0001) > PTRACERS_names(48)= 'c31',
(PID.TID 0000.0001) > PTRACERS_names(49)= 'c32',
(PID.TID 0000.0001) > PTRACERS_names(50)= 'c33',
(PID.TID 0000.0001) > PTRACERS_names(51)= 'c34',
(PID.TID 0000.0001) > PTRACERS_names(52)= 'c35',
(PID.TID 0000.0001) > PTRACERS_names(53)= 'c36',
(PID.TID 0000.0001) > PTRACERS_names(54)= 'c37',
(PID.TID 0000.0001) > PTRACERS_names(55)= 'c38',
(PID.TID 0000.0001) > PTRACERS_names(56)= 'c39',
(PID.TID 0000.0001) > PTRACERS_names(57)= 'c40',
(PID.TID 0000.0001) > PTRACERS_names(58)= 'c41',
(PID.TID 0000.0001) > PTRACERS_names(59)= 'c42',
(PID.TID 0000.0001) > PTRACERS_names(60)= 'c43',
(PID.TID 0000.0001) > PTRACERS_names(61)= 'c44',
(PID.TID 0000.0001) > PTRACERS_names(62)= 'c45',
(PID.TID 0000.0001) > PTRACERS_names(63)= 'c46',
(PID.TID 0000.0001) > PTRACERS_names(64)= 'c47',
(PID.TID 0000.0001) > PTRACERS_names(65)= 'c48',
(PID.TID 0000.0001) > PTRACERS_names(66)= 'c49',
(PID.TID 0000.0001) > PTRACERS_names(67)= 'c50',
(PID.TID 0000.0001) > PTRACERS_names(68)= 'c51',
(PID.TID 0000.0001) > PTRACERS_names(69)= 'c52',
(PID.TID 0000.0001) > PTRACERS_names(70)= 'c53',
(PID.TID 0000.0001) > PTRACERS_names(71)= 'c54',
(PID.TID 0000.0001) > PTRACERS_names(72)= 'c55',
(PID.TID 0000.0001) > PTRACERS_names(73)= 'c56',
(PID.TID 0000.0001) > PTRACERS_names(74)= 'c57',
(PID.TID 0000.0001) > PTRACERS_names(75)= 'c58',
(PID.TID 0000.0001) > PTRACERS_names(76)= 'c59',
(PID.TID 0000.0001) > PTRACERS_names(77)= 'c60',
(PID.TID 0000.0001) > PTRACERS_names(78)= 'c61',
(PID.TID 0000.0001) > PTRACERS_names(79)= 'c62',
(PID.TID 0000.0001) > PTRACERS_names(80)= 'c63',
(PID.TID 0000.0001) > PTRACERS_names(81)= 'c64',
(PID.TID 0000.0001) > PTRACERS_names(82)= 'c65',
(PID.TID 0000.0001) > PTRACERS_names(83)= 'c66',
(PID.TID 0000.0001) > PTRACERS_names(84)= 'c67',
(PID.TID 0000.0001) > PTRACERS_names(85)= 'c68',
(PID.TID 0000.0001) > PTRACERS_names(86)= 'c69',
(PID.TID 0000.0001) > PTRACERS_names(87)= 'c70',
(PID.TID 0000.0001) > PTRACERS_names(88)= 'c71',
(PID.TID 0000.0001) > PTRACERS_names(89)= 'c72',
(PID.TID 0000.0001) > PTRACERS_names(90)= 'c73',
(PID.TID 0000.0001) > PTRACERS_names(91)= 'c74',
(PID.TID 0000.0001) > PTRACERS_names(92)= 'c75',
(PID.TID 0000.0001) > PTRACERS_names(93)= 'c76',
(PID.TID 0000.0001) > PTRACERS_names(94)= 'c77',
(PID.TID 0000.0001) > PTRACERS_names(95)= 'c78',
(PID.TID 0000.0001) > PTRACERS_names(96)= 'zc1',
(PID.TID 0000.0001) > PTRACERS_names(97)= 'zc2',
(PID.TID 0000.0001) >#
(PID.TID 0000.0001) > PTRACERS_units(1)='mmol C/m^3'
(PID.TID 0000.0001) > PTRACERS_units(2)='mmol N/m^3'
(PID.TID 0000.0001) > PTRACERS_units(3)='mmol N/m^3'
(PID.TID 0000.0001) > PTRACERS_units(4)='mmol N/m^3'
(PID.TID 0000.0001) > PTRACERS_units(5)='mmol P/m^3'
(PID.TID 0000.0001) > PTRACERS_units(6)='mmol Si/m^3'
(PID.TID 0000.0001) > PTRACERS_units(7)='mmol Fe/m^3'
(PID.TID 0000.0001) > PTRACERS_units(8)='mmol C/m^3'
(PID.TID 0000.0001) > PTRACERS_units(9)='mmol N/m^3'
(PID.TID 0000.0001) > PTRACERS_units(10)='mmol P/m^3'
(PID.TID 0000.0001) > PTRACERS_units(11)='mmol Fe/m^3'
(PID.TID 0000.0001) > PTRACERS_units(12)='mmol C/m^3'
(PID.TID 0000.0001) > PTRACERS_units(13)='mmol N/m^3'
(PID.TID 0000.0001) > PTRACERS_units(14)='mmol P/m^3'
(PID.TID 0000.0001) > PTRACERS_units(15)='mmol Si/m^3'
(PID.TID 0000.0001) > PTRACERS_units(16)='mmol Fe/m^3'
(PID.TID 0000.0001) > PTRACERS_units(17)='mmol C/m^3'
(PID.TID 0000.0001) > PTRACERS_units(18:97)=80*'mmol C/m^3'
(PID.TID 0000.0001) >#
(PID.TID 0000.0001) > PTRACERS_ref(1:35,   1)= 35*2e3,
(PID.TID 0000.0001) > PTRACERS_initialFile(2)='../input/input/loc1_NH4_run83_janprof.bin',
(PID.TID 0000.0001) > PTRACERS_initialFile(3)='../input/input/loc1_NO2_run83_janprof.bin',
(PID.TID 0000.0001) > PTRACERS_initialFile(4)='../input/input/loc1_nitr_janprof.bin',
(PID.TID 0000.0001) > PTRACERS_initialFile(5)='../input/input/loc1_phos_janprof.bin',
(PID.TID 0000.0001) > PTRACERS_initialFile(6)='../input/input/loc1_sil_janprof.bin',
(PID.TID 0000.0001) > PTRACERS_initialFile(7)='../input/input/fet_uniform.bin',
(PID.TID 0000.0001) > PTRACERS_ref(1:35,   8)= 35*0e0,
(PID.TID 0000.0001) > PTRACERS_initialFile(9)='../input/input/loc1_DON_run83_janprof.bin',
(PID.TID 0000.0001) > PTRACERS_initialFile(10)='../input/input/loc1_DOP_run83_janprof.bin',
(PID.TID 0000.0001) > PTRACERS_initialFile(11)='../input/input/loc1_DOFe_run83_janprof.bin',
(PID.TID 0000.0001) > PTRACERS_ref(1:35,   12)= 35*0e0,
(PID.TID 0000.0001) > PTRACERS_initialFile(13)='../input/input/loc1_PON_run83_janprof.bin',
(PID.TID 0000.0001) > PTRACERS_initialFile(14)='../input/input/loc1_POP_run83_janprof.bin',
(PID.TID 0000.0001) > PTRACERS_initialFile(15)='../input/input/loc1_POSi_run83_janprof.bin',
(PID.TID 0000.0001) > PTRACERS_initialFile(16)='../input/input/loc1_POFe_run83_janprof.bin',
(PID.TID 0000.0001) > PTRACERS_ref(1:35,   17)= 35*0e0,
(PID.TID 0000.0001) > PTRACERS_initialFile(18:95)=78*'../input/input/loc1_biomass_run83_janprof.bin',
(PID.TID 0000.0001) > PTRACERS_initialFile(96)='../input/input/loc1_ZOOP_run83_janprof.bin',
(PID.TID 0000.0001) > PTRACERS_initialFile(97)='../input/input/loc1_ZOOP_run83_janprof.bin',
(PID.TID 0000.0001) > /
(PID.TID 0000.0001) 
(PID.TID 0000.0001)  PTRACERS_READPARMS: finished reading data.ptracers
(PID.TID 0000.0001)  GCHEM_READPARMS: opening data.gchem
(PID.TID 0000.0001)  OPEN_COPY_DATA_FILE: opening file data.gchem
(PID.TID 0000.0001) // =======================================================
(PID.TID 0000.0001) // Parameter file "data.gchem"
(PID.TID 0000.0001) // =======================================================
(PID.TID 0000.0001) > &GCHEM_PARM01
(PID.TID 0000.0001) >  useDARWIN=.TRUE.,
(PID.TID 0000.0001) >  nsubtime=1,
(PID.TID 0000.0001) > /
(PID.TID 0000.0001) 
(PID.TID 0000.0001)  GCHEM_READPARMS: finished reading data.gchem
(PID.TID 0000.0001)  DARWIN_READPARMS: opening data.darwin
(PID.TID 0000.0001)  OPEN_COPY_DATA_FILE: opening file data.darwin
(PID.TID 0000.0001) // =======================================================
(PID.TID 0000.0001) // Parameter file "data.darwin"
(PID.TID 0000.0001) // =======================================================
(PID.TID 0000.0001) > &DARWIN_FORCING_PARAMS
(PID.TID 0000.0001) > /
(PID.TID 0000.0001) > &DARWIN_EXF_PARAMS
(PID.TID 0000.0001) > ironFile='../input/input/loc1_FeFlux_monsurf.bin',
(PID.TID 0000.0001) > ironPeriod= -12.
(PID.TID 0000.0001) > darwin_inscal_iron= 1000.,
(PID.TID 0000.0001) >#
(PID.TID 0000.0001) >#PARFile='../input/input/loc1_PAR_monsurf.bin',
(PID.TID 0000.0001) >#
(PID.TID 0000.0001) > OASIM_EdFile( 1)='../input/input/loc1_oasim_edp01_below.bin',
(PID.TID 0000.0001) > OASIM_EdFile( 2)='../input/input/loc1_oasim_edp02_below.bin',
(PID.TID 0000.0001) > OASIM_EdFile( 3)='../input/input/loc1_oasim_edp03_below.bin',
(PID.TID 0000.0001) > OASIM_EdFile( 4)='../input/input/loc1_oasim_edp04_below.bin',
(PID.TID 0000.0001) > OASIM_EdFile( 5)='../input/input/loc1_oasim_edp05_below.bin',
(PID.TID 0000.0001) > OASIM_EdFile( 6)='../input/input/loc1_oasim_edp06_below.bin',
(PID.TID 0000.0001) > OASIM_EdFile( 7)='../input/input/loc1_oasim_edp07_below.bin',
(PID.TID 0000.0001) > OASIM_EdFile( 8)='../input/input/loc1_oasim_edp08_below.bin',
(PID.TID 0000.0001) > OASIM_EdFile( 9)='../input/input/loc1_oasim_edp09_below.bin',
(PID.TID 0000.0001) > OASIM_EdFile(10)='../input/input/loc1_oasim_edp10_below.bin',
(PID.TID 0000.0001) > OASIM_EdFile(11)='../input/input/loc1_oasim_edp11_below.bin',
(PID.TID 0000.0001) > OASIM_EdFile(12)='../input/input/loc1_oasim_edp12_below.bin',
(PID.TID 0000.0001) > OASIM_EdFile(13)='../input/input/loc1_oasim_edp13_below.bin',
(PID.TID 0000.0001) > OASIM_EsFile( 1)='../input/input/loc1_oasim_esp01_below.bin',
(PID.TID 0000.0001) > OASIM_EsFile( 2)='../input/input/loc1_oasim_esp02_below.bin',
(PID.TID 0000.0001) > OASIM_EsFile( 3)='../input/input/loc1_oasim_esp03_below.bin',
(PID.TID 0000.0001) > OASIM_EsFile( 4)='../input/input/loc1_oasim_esp04_below.bin',
(PID.TID 0000.0001) > OASIM_EsFile( 5)='../input/input/loc1_oasim_esp05_below.bin',
(PID.TID 0000.0001) > OASIM_EsFile( 6)='../input/input/loc1_oasim_esp06_below.bin',
(PID.TID 0000.0001) > OASIM_EsFile( 7)='../input/input/loc1_oasim_esp07_below.bin',
(PID.TID 0000.0001) > OASIM_EsFile( 8)='../input/input/loc1_oasim_esp08_below.bin',
(PID.TID 0000.0001) > OASIM_EsFile( 9)='../input/input/loc1_oasim_esp09_below.bin',
(PID.TID 0000.0001) > OASIM_EsFile(10)='../input/input/loc1_oasim_esp10_below.bin',
(PID.TID 0000.0001) > OASIM_EsFile(11)='../input/input/loc1_oasim_esp11_below.bin',
(PID.TID 0000.0001) > OASIM_EsFile(12)='../input/input/loc1_oasim_esp12_below.bin',
(PID.TID 0000.0001) > OASIM_EsFile(13)='../input/input/loc1_oasim_esp13_below.bin',
(PID.TID 0000.0001) > OASIMPeriod= -12.,
(PID.TID 0000.0001) > /
(PID.TID 0000.0001) > &DARWIN_PARAMS
(PID.TID 0000.0001) > darwin_seed=11231,
(PID.TID 0000.0001) > darwin_read_phos= T,
(PID.TID 0000.0001) > /
(PID.TID 0000.0001) > &DARWIN_RADTRANS_PARAMS
(PID.TID 0000.0001) > darwin_waterabsorbFile='abw25par.dat',
(PID.TID 0000.0001) > darwin_phytoabsorbFile='phyto_optics_1bb.dat',
(PID.TID 0000.0001) > darwin_particleabsorbFile='optics_detritus_3bb.dat',
(PID.TID 0000.0001) >#darwin_aCDOMFile='aCDOM13amtVK2006.dat',
(PID.TID 0000.0001) > darwin_radtrans_kmax=22,
(PID.TID 0000.0001) > darwin_waveband_edges=400,412.5,437.5,462.5,487.5,512.5,537.5,562.5,587.5,612.5,637.5,662.5,687.5,700,
(PID.TID 0000.0001) > darwin_waveband_centers=400,425,450,475,500,525,550,575,600,625,650,675,700,
(PID.TID 0000.0001) > /
(PID.TID 0000.0001) > &DARWIN_TRAIT_PARAMS
(PID.TID 0000.0001) > /
(PID.TID 0000.0001) > &DARWIN_ALLOMETRIC_PARAMS
(PID.TID 0000.0001) > /
(PID.TID 0000.0001) 
(PID.TID 0000.0001)  ===================================
(PID.TID 0000.0001)  DIAGNOSTICS_READPARMS: opening data.diagnostics
(PID.TID 0000.0001)  OPEN_COPY_DATA_FILE: opening file data.diagnostics
(PID.TID 0000.0001) // =======================================================
(PID.TID 0000.0001) // Parameter file "data.diagnostics"
(PID.TID 0000.0001) // =======================================================
(PID.TID 0000.0001) ># Darwin diagnostics
(PID.TID 0000.0001) ># ==================
(PID.TID 0000.0001) > &diagnostics_list
(PID.TID 0000.0001) >#
(PID.TID 0000.0001) >  frequency(1) = 3600.,
(PID.TID 0000.0001) >  fields( 1,1) = 'TRAC01  ',
(PID.TID 0000.0001) >  fields( 2,1) = 'TRAC02  ',
(PID.TID 0000.0001) >  fields( 3,1) = 'TRAC03  ',
(PID.TID 0000.0001) >  fields( 4,1) = 'TRAC04  ',
(PID.TID 0000.0001) >  fields( 5,1) = 'TRAC05  ',
(PID.TID 0000.0001) >  fields( 6,1) = 'TRAC06  ',
(PID.TID 0000.0001) >  fields( 7,1) = 'TRAC07  ',
(PID.TID 0000.0001) >  fields( 8,1) = 'TRAC08  ',
(PID.TID 0000.0001) >  fields( 9,1) = 'TRAC09  ',
(PID.TID 0000.0001) >  fields(10,1) = 'TRAC10  ',
(PID.TID 0000.0001) >  fields(11,1) = 'TRAC11  ',
(PID.TID 0000.0001) >  fields(12,1) = 'TRAC12  ',
(PID.TID 0000.0001) >  fields(13,1) = 'TRAC13  ',
(PID.TID 0000.0001) >  fields(14,1) = 'TRAC14  ',
(PID.TID 0000.0001) >  fields(15,1) = 'TRAC15  ',
(PID.TID 0000.0001) >  fields(16,1) = 'TRAC16  ',
(PID.TID 0000.0001) >  fields(17,1) = 'TRAC17  ',
(PID.TID 0000.0001) >  fields(18,1) = 'TRAC18  ',
(PID.TID 0000.0001) >  fields(19,1) = 'TRAC19  ',
(PID.TID 0000.0001) >  fields(20,1) = 'TRAC20  ',
(PID.TID 0000.0001) >  fields(21,1) = 'TRAC21  ',
(PID.TID 0000.0001) >  fields(22,1) = 'TRAC22  ',
(PID.TID 0000.0001) >  fields(23,1) = 'TRAC23  ',
(PID.TID 0000.0001) >  fields(24,1) = 'TRAC24  ',
(PID.TID 0000.0001) >  fields(25,1) = 'TRAC25  ',
(PID.TID 0000.0001) >  fields(26,1) = 'TRAC26  ',
(PID.TID 0000.0001) >  fields(27,1) = 'TRAC27  ',
(PID.TID 0000.0001) >  fields(28,1) = 'TRAC28  ',
(PID.TID 0000.0001) >  fields(29,1) = 'TRAC29  ',
(PID.TID 0000.0001) >  fields(30,1) = 'TRAC30  ',
(PID.TID 0000.0001) >  fields(31,1) = 'TRAC31  ',
(PID.TID 0000.0001) >  fields(32,1) = 'TRAC32  ',
(PID.TID 0000.0001) >  fields(33,1) = 'TRAC33  ',
(PID.TID 0000.0001) >  fields(34,1) = 'TRAC34  ',
(PID.TID 0000.0001) >  fields(35,1) = 'TRAC35  ',
(PID.TID 0000.0001) >  fields(36,1) = 'TRAC36  ',
(PID.TID 0000.0001) >  fields(37,1) = 'TRAC37  ',
(PID.TID 0000.0001) >  fields(38,1) = 'TRAC38  ',
(PID.TID 0000.0001) >  fields(39,1) = 'TRAC39  ',
(PID.TID 0000.0001) >  fields(40,1) = 'TRAC40  ',
(PID.TID 0000.0001) >  fields(41,1) = 'TRAC41  ',
(PID.TID 0000.0001) >  fields(42,1) = 'TRAC42  ',
(PID.TID 0000.0001) >  fields(43,1) = 'TRAC43  ',
(PID.TID 0000.0001) >  fields(44,1) = 'TRAC44  ',
(PID.TID 0000.0001) >  fields(45,1) = 'TRAC45  ',
(PID.TID 0000.0001) >  fields(46,1) = 'TRAC46  ',
(PID.TID 0000.0001) >  fields(47,1) = 'TRAC47  ',
(PID.TID 0000.0001) >  fields(48,1) = 'TRAC48  ',
(PID.TID 0000.0001) >  fields(49,1) = 'TRAC49  ',
(PID.TID 0000.0001) >  fields(50,1) = 'TRAC50  ',
(PID.TID 0000.0001) >  fields(51,1) = 'TRAC51  ',
(PID.TID 0000.0001) >  fields(52,1) = 'TRAC52  ',
(PID.TID 0000.0001) >  fields(53,1) = 'TRAC53  ',
(PID.TID 0000.0001) >  fields(54,1) = 'TRAC54  ',
(PID.TID 0000.0001) >  fields(55,1) = 'TRAC55  ',
(PID.TID 0000.0001) >  fields(56,1) = 'TRAC56  ',
(PID.TID 0000.0001) >  fields(57,1) = 'TRAC57  ',
(PID.TID 0000.0001) >  fields(58,1) = 'TRAC58  ',
(PID.TID 0000.0001) >  fields(59,1) = 'TRAC59  ',
(PID.TID 0000.0001) >  fields(60,1) = 'TRAC60  ',
(PID.TID 0000.0001) >  fields(61,1) = 'TRAC61  ',
(PID.TID 0000.0001) >  fields(62,1) = 'TRAC62  ',
(PID.TID 0000.0001) >  fields(63,1) = 'TRAC63  ',
(PID.TID 0000.0001) >  fields(64,1) = 'TRAC64  ',
(PID.TID 0000.0001) >  fields(65,1) = 'TRAC65  ',
(PID.TID 0000.0001) >  fields(66,1) = 'TRAC66  ',
(PID.TID 0000.0001) >  fields(67,1) = 'TRAC67  ',
(PID.TID 0000.0001) >  fields(68,1) = 'TRAC68  ',
(PID.TID 0000.0001) >  fields(69,1) = 'TRAC69  ',
(PID.TID 0000.0001) >  fields(70,1) = 'TRAC70  ',
(PID.TID 0000.0001) >  fields(71,1) = 'TRAC71  ',
(PID.TID 0000.0001) >  fields(72,1) = 'TRAC72  ',
(PID.TID 0000.0001) >  fields(73,1) = 'TRAC73  ',
(PID.TID 0000.0001) >  fields(74,1) = 'TRAC74  ',
(PID.TID 0000.0001) >  fields(75,1) = 'TRAC75  ',
(PID.TID 0000.0001) >  fields(76,1) = 'TRAC76  ',
(PID.TID 0000.0001) >  fields(77,1) = 'TRAC77  ',
(PID.TID 0000.0001) >  fields(78,1) = 'TRAC78  ',
(PID.TID 0000.0001) >  fields(79,1) = 'TRAC79  ',
(PID.TID 0000.0001) >  fields(80,1) = 'TRAC80  ',
(PID.TID 0000.0001) >  fields(81,1) = 'TRAC81  ',
(PID.TID 0000.0001) >  fields(82,1) = 'TRAC82  ',
(PID.TID 0000.0001) >  fields(83,1) = 'TRAC83  ',
(PID.TID 0000.0001) >  fields(84,1) = 'TRAC84  ',
(PID.TID 0000.0001) >  fields(85,1) = 'TRAC85  ',
(PID.TID 0000.0001) >  fields(86,1) = 'TRAC86  ',
(PID.TID 0000.0001) >  fields(87,1) = 'TRAC87  ',
(PID.TID 0000.0001) >  fields(88,1) = 'TRAC88  ',
(PID.TID 0000.0001) >  fields(89,1) = 'TRAC89  ',
(PID.TID 0000.0001) >  fields(90,1) = 'TRAC90  ',
(PID.TID 0000.0001) >  fields(91,1) = 'TRAC91  ',
(PID.TID 0000.0001) >  fields(92,1) = 'TRAC92  ',
(PID.TID 0000.0001) >  fields(93,1) = 'TRAC93  ',
(PID.TID 0000.0001) >  fields(94,1) = 'TRAC94  ',
(PID.TID 0000.0001) >  fields(95,1) = 'TRAC95  ',
(PID.TID 0000.0001) >  fields(96,1) = 'TRAC96  ',
(PID.TID 0000.0001) >  fields(97,1) = 'TRAC97  ',
(PID.TID 0000.0001) >  fields(98,1) = 'PAR01   ',
(PID.TID 0000.0001) >  fields(99,1) = 'DIC_c01 ',
(PID.TID 0000.0001) >  fields(100,1) = 'DIC_c02 ',
(PID.TID 0000.0001) >  fields(101,1) = 'c01_DOC ',
(PID.TID 0000.0001) >  fields(102,1) = 'c02_DOC ',
(PID.TID 0000.0001) >  fields(103,1) = 'c01_POC ',
(PID.TID 0000.0001) >  fields(104,1) = 'c02_POC ',
(PID.TID 0000.0001) >  fields(105,1) = 'PARF    ',
(PID.TID 0000.0001) >  fields(106,1) = 'atten   ',
(PID.TID 0000.0001) >  fields(107,1) = 'surfPAR ',
(PID.TID 0000.0001) >  fields(108,1) = 'exfPAR  ',
(PID.TID 0000.0001) >  fields(109,1) = 'limn01  ',
(PID.TID 0000.0001) >  fields(110,1) = 'limp01  ',
(PID.TID 0000.0001) >  fields(111,1) = 'limsi01 ',
(PID.TID 0000.0001) >  fields(112,1) = 'limfe01 ',
(PID.TID 0000.0001) >  fields(113,1) = 'limI01  ',
(PID.TID 0000.0001) >  fields(114,1) = 'limT01  ',
(PID.TID 0000.0001) >  fields(115,1) = 'c01_c   ',
(PID.TID 0000.0001) >  fields(116,1) = 'c02_c   ',
(PID.TID 0000.0001) >  fields(117,1) = 'c_c03   ',
(PID.TID 0000.0001) >  fields(118,1) = 'c_c04   ',
(PID.TID 0000.0001) >  fields(119,1) = 'c_DOC   ',
(PID.TID 0000.0001) >  fields(120,1) = 'c_POC   ',
(PID.TID 0000.0001) >  fields(121,1) = 'c_PIC   ',
(PID.TID 0000.0001) >  fields(122,1) = 'n_DON   ',
(PID.TID 0000.0001) >  fields(123,1) = 'n_PON   ',
(PID.TID 0000.0001) >  fields(124,1) = 'p_DOP   ',
(PID.TID 0000.0001) >  fields(125,1) = 'p_POP   ',
(PID.TID 0000.0001) >    filename(1) = 'darwin',
(PID.TID 0000.0001) >#
(PID.TID 0000.0001) > /
(PID.TID 0000.0001) >
(PID.TID 0000.0001) ># Parameter for Diagnostics of per level statistics:
(PID.TID 0000.0001) >#-----------------
(PID.TID 0000.0001) ># for each output-stream:
(PID.TID 0000.0001) >#  stat_fname(n) : prefix of the output file name (only 8.c long) for
(PID.TID 0000.0001) >#outp.stream n
(PID.TID 0000.0001) >#  stat_freq(n):< 0 : write snap-shot output every |stat_freq| seconds
(PID.TID 0000.0001) >#               > 0 : write time-average output every stat_freq seconds
(PID.TID 0000.0001) >#  stat_phase(n)    : write at time = stat_phase + multiple of |stat_freq|
(PID.TID 0000.0001) >#  stat_region(:,n) : list of "regions" (default: 1 region only=global)
(PID.TID 0000.0001) >#  stat_fields(:,n) : list of diagnostics fields (8.c) (see
(PID.TID 0000.0001) >#"available_diagnostics.log"
(PID.TID 0000.0001) >#                 file for the list of all available diag. in this particular
(PID.TID 0000.0001) >#config)
(PID.TID 0000.0001) >#-----------------
(PID.TID 0000.0001) > &DIAG_STATIS_PARMS
(PID.TID 0000.0001) > diagst_mnc=.FALSE.,
(PID.TID 0000.0001) >#     stat_freq(1:21)= 21*3600.,
(PID.TID 0000.0001) >#    stat_phase(1:21)= 21*0.,
(PID.TID 0000.0001) ># stat_fields(1,1)= 'TRAC01  '
(PID.TID 0000.0001) ># stat_fields(1,2)= 'TRAC02  '
(PID.TID 0000.0001) ># stat_fields(1,3)= 'TRAC03  '
(PID.TID 0000.0001) ># stat_fields(1,4)= 'TRAC04  '
(PID.TID 0000.0001) ># stat_fields(1,5)= 'TRAC05  '
(PID.TID 0000.0001) ># stat_fields(1,6)= 'TRAC06  '
(PID.TID 0000.0001) ># stat_fields(1,7)= 'TRAC07  '
(PID.TID 0000.0001) ># stat_fields(1,8)= 'TRAC08  '
(PID.TID 0000.0001) ># stat_fields(1,9)= 'TRAC09  '
(PID.TID 0000.0001) ># stat_fields(1,10)= 'TRAC10  '
(PID.TID 0000.0001) ># stat_fields(1,11)= 'TRAC11  '
(PID.TID 0000.0001) ># stat_fields(1,12)= 'TRAC12  '
(PID.TID 0000.0001) ># stat_fields(1,13)= 'TRAC13  '
(PID.TID 0000.0001) ># stat_fields(1,14)= 'TRAC14  '
(PID.TID 0000.0001) ># stat_fields(1,15)= 'TRAC15  '
(PID.TID 0000.0001) ># stat_fields(1,16)= 'TRAC16  '
(PID.TID 0000.0001) ># stat_fields(1,17)= 'TRAC17  '
(PID.TID 0000.0001) ># stat_fields(1,18)= 'TRAC18  '
(PID.TID 0000.0001) ># stat_fields(1,19)= 'TRAC19  '
(PID.TID 0000.0001) ># stat_fields(1,20)= 'TRAC20  '
(PID.TID 0000.0001) ># stat_fields(1,21)= 'TRAC21  '
(PID.TID 0000.0001) >#    stat_fname(1)= 'stats/DIC',
(PID.TID 0000.0001) >#    stat_fname(2)= 'stats/NH4',
(PID.TID 0000.0001) >#    stat_fname(3)= 'stats/NO2',
(PID.TID 0000.0001) >#    stat_fname(4)= 'stats/NO3',
(PID.TID 0000.0001) >#    stat_fname(5)= 'stats/PO4',
(PID.TID 0000.0001) >#    stat_fname(6)= 'stats/SiO2',
(PID.TID 0000.0001) >#    stat_fname(7)= 'stats/FeT',
(PID.TID 0000.0001) >#    stat_fname(8)= 'stats/DOC',
(PID.TID 0000.0001) >#    stat_fname(9)= 'stats/DON',
(PID.TID 0000.0001) >#    stat_fname(10)= 'stats/DOP',
(PID.TID 0000.0001) >#    stat_fname(11)= 'stats/DOFe',
(PID.TID 0000.0001) >#    stat_fname(12)= 'stats/POC',
(PID.TID 0000.0001) >#    stat_fname(13)= 'stats/PON',
(PID.TID 0000.0001) >#    stat_fname(14)= 'stats/POP',
(PID.TID 0000.0001) >#    stat_fname(15)= 'stats/POSi',
(PID.TID 0000.0001) >#    stat_fname(16)= 'stats/POFe',
(PID.TID 0000.0001) >#    stat_fname(17)= 'stats/PIC',
(PID.TID 0000.0001) >#    stat_fname(18)= 'stats/c1',
(PID.TID 0000.0001) >#    stat_fname(19)= 'stats/c2',
(PID.TID 0000.0001) >#    stat_fname(20)= 'stats/c3',
(PID.TID 0000.0001) >#    stat_fname(21)= 'stats/c4',
(PID.TID 0000.0001) > /
(PID.TID 0000.0001) 
(PID.TID 0000.0001) S/R DIAGNOSTICS_READPARMS, read namelist "diagnostics_list": start
(PID.TID 0000.0001) S/R DIAGNOSTICS_READPARMS, read namelist "diagnostics_list": OK
(PID.TID 0000.0001) S/R DIAGNOSTICS_READPARMS, read namelist "DIAG_STATIS_PARMS": start
(PID.TID 0000.0001) S/R DIAGNOSTICS_READPARMS, read namelist "DIAG_STATIS_PARMS": OK
(PID.TID 0000.0001)  DIAGNOSTICS_READPARMS: global parameter summary:
(PID.TID 0000.0001)  dumpAtLast = /* always write time-ave diags at the end */
(PID.TID 0000.0001)                   F
(PID.TID 0000.0001)     ;
(PID.TID 0000.0001)  diag_mnc =   /* write NetCDF output files */
(PID.TID 0000.0001)                   T
(PID.TID 0000.0001)     ;
(PID.TID 0000.0001)  useMissingValue = /* put MissingValue where mask = 0 */
(PID.TID 0000.0001)                   F
(PID.TID 0000.0001)     ;
(PID.TID 0000.0001)  diagCG_maxIters = /* max number of iters in diag_cg2d */
(PID.TID 0000.0001)                     300
(PID.TID 0000.0001)     ;
(PID.TID 0000.0001)  diagCG_resTarget = /* residual target for diag_cg2d */
(PID.TID 0000.0001)                 1.000000000000000E-07
(PID.TID 0000.0001)     ;
(PID.TID 0000.0001) -----------------------------------------------------
(PID.TID 0000.0001)  DIAGNOSTICS_READPARMS: active diagnostics summary:
(PID.TID 0000.0001) -----------------------------------------------------
(PID.TID 0000.0001) Creating Output Stream: darwin
(PID.TID 0000.0001) Output Frequency:       3600.000000 ; Phase:           0.000000
(PID.TID 0000.0001)  Averaging Freq.:       3600.000000 , Phase:           0.000000 , Cycle:   1
(PID.TID 0000.0001)  missing value:  1.234567000000E+05 ; for integers:   123456789
(PID.TID 0000.0001)  Levels:    will be set later
(PID.TID 0000.0001)  Fields:    TRAC01   TRAC02   TRAC03   TRAC04   TRAC05   TRAC06   TRAC07   TRAC08   TRAC09   TRAC10
(PID.TID 0000.0001)  Fields:    TRAC11   TRAC12   TRAC13   TRAC14   TRAC15   TRAC16   TRAC17   TRAC18   TRAC19   TRAC20
(PID.TID 0000.0001)  Fields:    TRAC21   TRAC22   TRAC23   TRAC24   TRAC25   TRAC26   TRAC27   TRAC28   TRAC29   TRAC30
(PID.TID 0000.0001)  Fields:    TRAC31   TRAC32   TRAC33   TRAC34   TRAC35   TRAC36   TRAC37   TRAC38   TRAC39   TRAC40
(PID.TID 0000.0001)  Fields:    TRAC41   TRAC42   TRAC43   TRAC44   TRAC45   TRAC46   TRAC47   TRAC48   TRAC49   TRAC50
(PID.TID 0000.0001)  Fields:    TRAC51   TRAC52   TRAC53   TRAC54   TRAC55   TRAC56   TRAC57   TRAC58   TRAC59   TRAC60
(PID.TID 0000.0001)  Fields:    TRAC61   TRAC62   TRAC63   TRAC64   TRAC65   TRAC66   TRAC67   TRAC68   TRAC69   TRAC70
(PID.TID 0000.0001)  Fields:    TRAC71   TRAC72   TRAC73   TRAC74   TRAC75   TRAC76   TRAC77   TRAC78   TRAC79   TRAC80
(PID.TID 0000.0001)  Fields:    TRAC81   TRAC82   TRAC83   TRAC84   TRAC85   TRAC86   TRAC87   TRAC88   TRAC89   TRAC90
(PID.TID 0000.0001)  Fields:    TRAC91   TRAC92   TRAC93   TRAC94   TRAC95   TRAC96   TRAC97   PAR01    DIC_c01  DIC_c02
(PID.TID 0000.0001)  Fields:    c01_DOC  c02_DOC  c01_POC  c02_POC  PARF     atten    surfPAR  exfPAR   limn01   limp01
(PID.TID 0000.0001)  Fields:    limsi01  limfe01  limI01   limT01   c01_c    c02_c    c_c03    c_c04    c_DOC    c_POC
(PID.TID 0000.0001)  Fields:    c_PIC    n_DON    n_PON    p_DOP    p_POP
(PID.TID 0000.0001) -----------------------------------------------------
(PID.TID 0000.0001)  DIAGNOSTICS_READPARMS: statistics diags. summary:
(PID.TID 0000.0001) -----------------------------------------------------
(PID.TID 0000.0001) 
(PID.TID 0000.0001) SET_PARMS: done
(PID.TID 0000.0001) Enter INI_VERTICAL_GRID: setInterFDr=    T ; setCenterDr=    F
(PID.TID 0000.0001) %MON XC_max                       =   3.3550000000000000E+02
(PID.TID 0000.0001) %MON XC_min                       =   3.3550000000000000E+02
(PID.TID 0000.0001) %MON XC_mean                      =   3.3550000000000000E+02
(PID.TID 0000.0001) %MON XC_sd                        =   0.0000000000000000E+00
(PID.TID 0000.0001) %MON XG_max                       =   3.3500000000000000E+02
(PID.TID 0000.0001) %MON XG_min                       =   3.3500000000000000E+02
(PID.TID 0000.0001) %MON XG_mean                      =   3.3500000000000000E+02
(PID.TID 0000.0001) %MON XG_sd                        =   0.0000000000000000E+00
(PID.TID 0000.0001) %MON DXC_max                      =   1.0603184087719869E+05
(PID.TID 0000.0001) %MON DXC_min                      =   1.0603184087719869E+05
(PID.TID 0000.0001) %MON DXC_mean                     =   1.0603184087719869E+05
(PID.TID 0000.0001) %MON DXC_sd                       =   0.0000000000000000E+00
(PID.TID 0000.0001) %MON DXF_max                      =   1.0603184087719869E+05
(PID.TID 0000.0001) %MON DXF_min                      =   1.0603184087719869E+05
(PID.TID 0000.0001) %MON DXF_mean                     =   1.0603184087719869E+05
(PID.TID 0000.0001) %MON DXF_sd                       =   0.0000000000000000E+00
(PID.TID 0000.0001) %MON DXG_max                      =   1.0573606049668728E+05
(PID.TID 0000.0001) %MON DXG_min                      =   1.0573606049668728E+05
(PID.TID 0000.0001) %MON DXG_mean                     =   1.0573606049668728E+05
(PID.TID 0000.0001) %MON DXG_sd                       =   0.0000000000000000E+00
(PID.TID 0000.0001) %MON DXV_max                      =   1.0573606049668728E+05
(PID.TID 0000.0001) %MON DXV_min                      =   1.0573606049668728E+05
(PID.TID 0000.0001) %MON DXV_mean                     =   1.0573606049668728E+05
(PID.TID 0000.0001) %MON DXV_sd                       =   0.0000000000000000E+00
(PID.TID 0000.0001) %MON YC_max                       =  -1.7500000000000000E+01
(PID.TID 0000.0001) %MON YC_min                       =  -1.7500000000000000E+01
(PID.TID 0000.0001) %MON YC_mean                      =  -1.7500000000000000E+01
(PID.TID 0000.0001) %MON YC_sd                        =   0.0000000000000000E+00
(PID.TID 0000.0001) %MON YG_max                       =  -1.8000000000000000E+01
(PID.TID 0000.0001) %MON YG_min                       =  -1.8000000000000000E+01
(PID.TID 0000.0001) %MON YG_mean                      =  -1.8000000000000000E+01
(PID.TID 0000.0001) %MON YG_sd                        =   0.0000000000000000E+00
(PID.TID 0000.0001) %MON DYC_max                      =   1.1117747335203880E+05
(PID.TID 0000.0001) %MON DYC_min                      =   1.1117747335203880E+05
(PID.TID 0000.0001) %MON DYC_mean                     =   1.1117747335203880E+05
(PID.TID 0000.0001) %MON DYC_sd                       =   0.0000000000000000E+00
(PID.TID 0000.0001) %MON DYF_max                      =   1.1117747335203880E+05
(PID.TID 0000.0001) %MON DYF_min                      =   1.1117747335203880E+05
(PID.TID 0000.0001) %MON DYF_mean                     =   1.1117747335203880E+05
(PID.TID 0000.0001) %MON DYF_sd                       =   0.0000000000000000E+00
(PID.TID 0000.0001) %MON DYG_max                      =   1.1117747335203880E+05
(PID.TID 0000.0001) %MON DYG_min                      =   1.1117747335203880E+05
(PID.TID 0000.0001) %MON DYG_mean                     =   1.1117747335203880E+05
(PID.TID 0000.0001) %MON DYG_sd                       =   0.0000000000000000E+00
(PID.TID 0000.0001) %MON DYU_max                      =   1.1117747335203880E+05
(PID.TID 0000.0001) %MON DYU_min                      =   1.1117747335203880E+05
(PID.TID 0000.0001) %MON DYU_mean                     =   1.1117747335203880E+05
(PID.TID 0000.0001) %MON DYU_sd                       =   0.0000000000000000E+00
(PID.TID 0000.0001) %MON RA_max                       =   1.1788202541769560E+10
(PID.TID 0000.0001) %MON RA_min                       =   1.1788202541769560E+10
(PID.TID 0000.0001) %MON RA_mean                      =   1.1788202541769560E+10
(PID.TID 0000.0001) %MON RA_sd                        =   0.0000000000000000E+00
(PID.TID 0000.0001) %MON RAW_max                      =   1.1788202541769560E+10
(PID.TID 0000.0001) %MON RAW_min                      =   1.1788202541769560E+10
(PID.TID 0000.0001) %MON RAW_mean                     =   1.1788202541769560E+10
(PID.TID 0000.0001) %MON RAW_sd                       =   0.0000000000000000E+00
(PID.TID 0000.0001) %MON RAS_max                      =   1.1755318843773766E+10
(PID.TID 0000.0001) %MON RAS_min                      =   1.1755318843773766E+10
(PID.TID 0000.0001) %MON RAS_mean                     =   1.1755318843773766E+10
(PID.TID 0000.0001) %MON RAS_sd                       =   0.0000000000000000E+00
(PID.TID 0000.0001) %MON RAZ_max                      =   1.1755318843773766E+10
(PID.TID 0000.0001) %MON RAZ_min                      =   1.1755318843773766E+10
(PID.TID 0000.0001) %MON RAZ_mean                     =   1.1755318843773766E+10
(PID.TID 0000.0001) %MON RAZ_sd                       =   0.0000000000000000E+00
(PID.TID 0000.0001) %MON AngleCS_max                  =   1.0000000000000000E+00
(PID.TID 0000.0001) %MON AngleCS_min                  =   1.0000000000000000E+00
(PID.TID 0000.0001) %MON AngleCS_mean                 =   1.0000000000000000E+00
(PID.TID 0000.0001) %MON AngleCS_sd                   =   0.0000000000000000E+00
(PID.TID 0000.0001) %MON AngleSN_max                  =   0.0000000000000000E+00
(PID.TID 0000.0001) %MON AngleSN_min                  =   0.0000000000000000E+00
(PID.TID 0000.0001) %MON AngleSN_mean                 =   0.0000000000000000E+00
(PID.TID 0000.0001) %MON AngleSN_sd                   =   0.0000000000000000E+00
(PID.TID 0000.0001)  MDS_READ_FIELD: opening global file: ../input/input/bathyneg.bin
(PID.TID 0000.0001) // =======================================================
(PID.TID 0000.0001) // Field Model R_low (ini_masks_etc)
(PID.TID 0000.0001) // CMIN =         -3.495000000000000E+03
(PID.TID 0000.0001) // CMAX =         -3.495000000000000E+03
(PID.TID 0000.0001) // CINT =          0.000000000000000E+00
(PID.TID 0000.0001) // SYMBOLS (CMIN->CMAX): -abcdefghijklmnopqrstuvwxyz+
(PID.TID 0000.0001) //                  0.0: .
(PID.TID 0000.0001) // RANGE I (Lo:Hi:Step):(    -1:     3:     1)
(PID.TID 0000.0001) // RANGE J (Lo:Hi:Step):(     3:    -1:    -1)
(PID.TID 0000.0001) // RANGE K (Lo:Hi:Step):(   1:   1:   1)
(PID.TID 0000.0001) // =======================================================
(PID.TID 0000.0001) // =======================================================
(PID.TID 0000.0001) // END OF FIELD                                          =
(PID.TID 0000.0001) // =======================================================
(PID.TID 0000.0001) 
(PID.TID 0000.0001) // =======================================================
(PID.TID 0000.0001) // Field Model Ro_surf (ini_masks_etc)
(PID.TID 0000.0001) // CMIN =          1.000000000000000E+32
(PID.TID 0000.0001) // CMAX =         -1.000000000000000E+32
(PID.TID 0000.0001) // CINT =          0.000000000000000E+00
(PID.TID 0000.0001) // SYMBOLS (CMIN->CMAX): -abcdefghijklmnopqrstuvwxyz+
(PID.TID 0000.0001) //                  0.0: .
(PID.TID 0000.0001) // RANGE I (Lo:Hi:Step):(    -1:     3:     1)
(PID.TID 0000.0001) // RANGE J (Lo:Hi:Step):(     3:    -1:    -1)
(PID.TID 0000.0001) // RANGE K (Lo:Hi:Step):(   1:   1:   1)
(PID.TID 0000.0001) // =======================================================
(PID.TID 0000.0001) // =======================================================
(PID.TID 0000.0001) // END OF FIELD                                          =
(PID.TID 0000.0001) // =======================================================
(PID.TID 0000.0001) 
(PID.TID 0000.0001) // =======================================================
(PID.TID 0000.0001) // Field hFacC at iteration          0
(PID.TID 0000.0001) // CMIN =          1.000000000000000E+00
(PID.TID 0000.0001) // CMAX =          1.000000000000000E+00
(PID.TID 0000.0001) // CINT =          0.000000000000000E+00
(PID.TID 0000.0001) // SYMBOLS (CMIN->CMAX): -abcdefghijklmnopqrstuvwxyz+
(PID.TID 0000.0001) //                  0.0: .
(PID.TID 0000.0001) // RANGE I (Lo:Hi:Step):(    -1:     3:     1)
(PID.TID 0000.0001) // RANGE J (Lo:Hi:Step):(     3:    -1:    -1)
(PID.TID 0000.0001) // RANGE K (Lo:Hi:Step):(   1:   1:   1)
(PID.TID 0000.0001) // =======================================================
(PID.TID 0000.0001) // =======================================================
(PID.TID 0000.0001) // END OF FIELD                                          =
(PID.TID 0000.0001) // =======================================================
(PID.TID 0000.0001) 
(PID.TID 0000.0001) // =======================================================
(PID.TID 0000.0001) // Field hFacW at iteration          0
(PID.TID 0000.0001) // CMIN =          1.000000000000000E+00
(PID.TID 0000.0001) // CMAX =          1.000000000000000E+00
(PID.TID 0000.0001) // CINT =          0.000000000000000E+00
(PID.TID 0000.0001) // SYMBOLS (CMIN->CMAX): -abcdefghijklmnopqrstuvwxyz+
(PID.TID 0000.0001) //                  0.0: .
(PID.TID 0000.0001) // RANGE I (Lo:Hi:Step):(    -1:     3:     1)
(PID.TID 0000.0001) // RANGE J (Lo:Hi:Step):(     3:    -1:    -1)
(PID.TID 0000.0001) // RANGE K (Lo:Hi:Step):(   1:   1:   1)
(PID.TID 0000.0001) // =======================================================
(PID.TID 0000.0001) // =======================================================
(PID.TID 0000.0001) // END OF FIELD                                          =
(PID.TID 0000.0001) // =======================================================
(PID.TID 0000.0001) 
(PID.TID 0000.0001) // =======================================================
(PID.TID 0000.0001) // Field hFacS at iteration          0
(PID.TID 0000.0001) // CMIN =          1.000000000000000E+00
(PID.TID 0000.0001) // CMAX =          1.000000000000000E+00
(PID.TID 0000.0001) // CINT =          0.000000000000000E+00
(PID.TID 0000.0001) // SYMBOLS (CMIN->CMAX): -abcdefghijklmnopqrstuvwxyz+
(PID.TID 0000.0001) //                  0.0: .
(PID.TID 0000.0001) // RANGE I (Lo:Hi:Step):(    -1:     3:     1)
(PID.TID 0000.0001) // RANGE J (Lo:Hi:Step):(     3:    -1:    -1)
(PID.TID 0000.0001) // RANGE K (Lo:Hi:Step):(   1:   1:   1)
(PID.TID 0000.0001) // =======================================================
(PID.TID 0000.0001) // =======================================================
(PID.TID 0000.0001) // END OF FIELD                                          =
(PID.TID 0000.0001) // =======================================================
(PID.TID 0000.0001) 
(PID.TID 0000.0001) 
(PID.TID 0000.0001) // =======================================================
(PID.TID 0000.0001) // Calendar configuration >>> START <<<
(PID.TID 0000.0001) // =======================================================
(PID.TID 0000.0001) 
(PID.TID 0000.0001) modelstart = /* Start time of the model integration [s] */
(PID.TID 0000.0001)                 0.000000000000000E+00
(PID.TID 0000.0001)     ;
(PID.TID 0000.0001) modelend  = /* End time of the model integration [s] */
(PID.TID 0000.0001)                 1.440000000000000E+04
(PID.TID 0000.0001)     ;
(PID.TID 0000.0001) modelstep = /* Time interval for a model forward step [s] */
(PID.TID 0000.0001)                 3.600000000000000E+03
(PID.TID 0000.0001)     ;
(PID.TID 0000.0001) usingGregorianCalendar= /* Calendar Type: Gregorian Calendar */
(PID.TID 0000.0001)                   F
(PID.TID 0000.0001)     ;
(PID.TID 0000.0001) usingJulianCalendar = /* Calendar Type: Julian Calendar */
(PID.TID 0000.0001)                   F
(PID.TID 0000.0001)     ;
(PID.TID 0000.0001) usingModelCalendar  = /* Calendar Type: Model Calendar */
(PID.TID 0000.0001)                   T
(PID.TID 0000.0001)     ;
(PID.TID 0000.0001) modelstartdate YYYYMMDD = /* Model start date YYYY-MM-DD */
(PID.TID 0000.0001)                19920101
(PID.TID 0000.0001)     ;
(PID.TID 0000.0001)   modelstartdate HHMMSS = /* Model start date HH-MM-SS  */
(PID.TID 0000.0001)                       0
(PID.TID 0000.0001)     ;
(PID.TID 0000.0001) modelenddate   YYYYMMDD = /* Model end date YYYY-MM-DD */
(PID.TID 0000.0001)                19920101
(PID.TID 0000.0001)     ;
(PID.TID 0000.0001)   modelenddate   HHMMSS = /* Model end date HH-MM-SS  */
(PID.TID 0000.0001)                   40000
(PID.TID 0000.0001)     ;
(PID.TID 0000.0001) intyears = /* Number of calendar years affected by the integration */
(PID.TID 0000.0001)                       1
(PID.TID 0000.0001)     ;
(PID.TID 0000.0001) intmonths= /* Number of calendar months affected by the integration */
(PID.TID 0000.0001)                       1
(PID.TID 0000.0001)     ;
(PID.TID 0000.0001) intdays = /* Number of calendar days affected by the integration */
(PID.TID 0000.0001)                       1
(PID.TID 0000.0001)     ;
(PID.TID 0000.0001) modeliter0 = /* Base timestep number  */
(PID.TID 0000.0001)                       0
(PID.TID 0000.0001)     ;
(PID.TID 0000.0001) modeliterend = /* Final timestep number  */
(PID.TID 0000.0001)                       4
(PID.TID 0000.0001)     ;
(PID.TID 0000.0001) modelintsteps= /* Number of model timesteps  */
(PID.TID 0000.0001)                       4
(PID.TID 0000.0001)     ;
(PID.TID 0000.0001) 
(PID.TID 0000.0001) // =======================================================
(PID.TID 0000.0001) // Calendar configuration  >>> END <<<
(PID.TID 0000.0001) // =======================================================
(PID.TID 0000.0001) 
(PID.TID 0000.0001) GAD_INIT_FIXED: GAD_OlMinSize=  2  0  1
(PID.TID 0000.0001) 
(PID.TID 0000.0001) // ===================================
(PID.TID 0000.0001) // GAD parameters :
(PID.TID 0000.0001) // ===================================
(PID.TID 0000.0001) tempAdvScheme =   /* Temp. Horiz.Advection scheme selector */
(PID.TID 0000.0001)                       3
(PID.TID 0000.0001)     ;
(PID.TID 0000.0001) tempVertAdvScheme =   /* Temp. Vert. Advection scheme selector */
(PID.TID 0000.0001)                       3
(PID.TID 0000.0001)     ;
(PID.TID 0000.0001) tempMultiDimAdvec =   /* use Muti-Dim Advec method for Temp */
(PID.TID 0000.0001)                   F
(PID.TID 0000.0001)     ;
(PID.TID 0000.0001) tempSOM_Advection = /* use 2nd Order Moment Advection for Temp */
(PID.TID 0000.0001)                   F
(PID.TID 0000.0001)     ;
(PID.TID 0000.0001) AdamsBashforthGt = /* apply Adams-Bashforth extrapolation on Gt */
(PID.TID 0000.0001)                   T
(PID.TID 0000.0001)     ;
(PID.TID 0000.0001) AdamsBashforth_T = /* apply Adams-Bashforth extrapolation on Temp */
(PID.TID 0000.0001)                   F
(PID.TID 0000.0001)     ;
(PID.TID 0000.0001) saltAdvScheme =   /* Salt. Horiz.advection scheme selector */
(PID.TID 0000.0001)                       3
(PID.TID 0000.0001)     ;
(PID.TID 0000.0001) saltVertAdvScheme =   /* Salt. Vert. Advection scheme selector */
(PID.TID 0000.0001)                       3
(PID.TID 0000.0001)     ;
(PID.TID 0000.0001) saltMultiDimAdvec =   /* use Muti-Dim Advec method for Salt */
(PID.TID 0000.0001)                   F
(PID.TID 0000.0001)     ;
(PID.TID 0000.0001) saltSOM_Advection = /* use 2nd Order Moment Advection for Salt */
(PID.TID 0000.0001)                   F
(PID.TID 0000.0001)     ;
(PID.TID 0000.0001) AdamsBashforthGs = /* apply Adams-Bashforth extrapolation on Gs */
(PID.TID 0000.0001)                   F
(PID.TID 0000.0001)     ;
(PID.TID 0000.0001) AdamsBashforth_S = /* apply Adams-Bashforth extrapolation on Salt */
(PID.TID 0000.0001)                   F
(PID.TID 0000.0001)     ;
(PID.TID 0000.0001) // ===================================
(PID.TID 0000.0001) 
(PID.TID 0000.0001) // =======================================================
(PID.TID 0000.0001) // External forcing (EXF) configuration >>> START <<<
(PID.TID 0000.0001) // =======================================================
(PID.TID 0000.0001) 
(PID.TID 0000.0001)  EXF general parameters:
(PID.TID 0000.0001) 
(PID.TID 0000.0001) exf_iprec = /* exf file precision */
(PID.TID 0000.0001)                      32
(PID.TID 0000.0001)     ;
(PID.TID 0000.0001) useExfYearlyFields = /* add extension _YEAR to input file names */
(PID.TID 0000.0001)                   T
(PID.TID 0000.0001)     ;
(PID.TID 0000.0001) twoDigitYear = /* use 2-digit year extension */
(PID.TID 0000.0001)                   T
(PID.TID 0000.0001)     ;
(PID.TID 0000.0001) exf_verbose = /* print more messages to STDOUT */
(PID.TID 0000.0001)                   F
(PID.TID 0000.0001)     ;
(PID.TID 0000.0001) useExfCheckRange = /* check for fields range */
(PID.TID 0000.0001)                   F
(PID.TID 0000.0001)     ;
(PID.TID 0000.0001) exf_monFreq = /* EXF monitor frequency [ s ] */
(PID.TID 0000.0001)                 1.000000000000000E+00
(PID.TID 0000.0001)     ;
(PID.TID 0000.0001) repeatPeriod = /* period for cycling forcing dataset [ s ] */
(PID.TID 0000.0001)                 0.000000000000000E+00
(PID.TID 0000.0001)     ;
(PID.TID 0000.0001) climTempFreeze= /* Minimum climatological temperature [deg.C] */
(PID.TID 0000.0001)                -1.900000000000000E+00
(PID.TID 0000.0001)     ;
(PID.TID 0000.0001) windStressMax = /* Maximum absolute windstress [ Pa ] */
(PID.TID 0000.0001)                 2.000000000000000E+00
(PID.TID 0000.0001)     ;
(PID.TID 0000.0001) stressIsOnCgrid = /* set u,v_stress on Arakawa C-grid */
(PID.TID 0000.0001)                   F
(PID.TID 0000.0001)     ;
(PID.TID 0000.0001) cen2kel = /* conversion of deg. Centigrade to Kelvin [K] */
(PID.TID 0000.0001)                 2.731500000000000E+02
(PID.TID 0000.0001)     ;
(PID.TID 0000.0001) gravity_mks= /* gravitational acceleration [m/s^2] */
(PID.TID 0000.0001)                 9.810000000000000E+00
(PID.TID 0000.0001)     ;
(PID.TID 0000.0001) atmrho =  /* mean atmospheric density [kg/m^3] */
(PID.TID 0000.0001)                 1.200000000000000E+00
(PID.TID 0000.0001)     ;
(PID.TID 0000.0001) atmcp =  /* mean atmospheric specific heat [J/kg/K] */
(PID.TID 0000.0001)                 1.005000000000000E+03
(PID.TID 0000.0001)     ;
(PID.TID 0000.0001) flamb =  /* latent heat of evaporation [J/kg] */
(PID.TID 0000.0001)                 2.500000000000000E+06
(PID.TID 0000.0001)     ;
(PID.TID 0000.0001) flami =  /* latent heat of pure-ice melting [J/kg] */
(PID.TID 0000.0001)                 3.340000000000000E+05
(PID.TID 0000.0001)     ;
(PID.TID 0000.0001) cvapor_fac = /* const. for Saturation calculation [?] */
(PID.TID 0000.0001)                 6.403800000000000E+05
(PID.TID 0000.0001)     ;
(PID.TID 0000.0001) cvapor_exp = /* const. for Saturation calculation [?] */
(PID.TID 0000.0001)                 5.107400000000000E+03
(PID.TID 0000.0001)     ;
(PID.TID 0000.0001) cvapor_fac_ice= /* const. for Saturation calculation [?] */
(PID.TID 0000.0001)                 1.163780000000000E+07
(PID.TID 0000.0001)     ;
(PID.TID 0000.0001) cvapor_exp_ice= /* const. for Saturation calculation [?] */
(PID.TID 0000.0001)                 5.897800000000000E+03
(PID.TID 0000.0001)     ;
(PID.TID 0000.0001) humid_fac = /* humidity coef. in virtual temp. [(kg/kg)^-1] */
(PID.TID 0000.0001)                 6.060000000000000E-01
(PID.TID 0000.0001)     ;
(PID.TID 0000.0001) gamma_blk = /* adiabatic lapse rate [?] */
(PID.TID 0000.0001)                 1.000000000000000E-02
(PID.TID 0000.0001)     ;
(PID.TID 0000.0001) saltsat = /* reduction of Qsat over salty water [-] */
(PID.TID 0000.0001)                 9.800000000000000E-01
(PID.TID 0000.0001)     ;
(PID.TID 0000.0001) noNegativeEvap = /* prevent negative Evaporation */
(PID.TID 0000.0001)                   F
(PID.TID 0000.0001)     ;
(PID.TID 0000.0001) sstExtrapol = /* extrapolation coeff from lev. 1 & 2 to surf [-] */
(PID.TID 0000.0001)                 0.000000000000000E+00
(PID.TID 0000.0001)     ;
(PID.TID 0000.0001) cDrag_1 = /* coef used in drag calculation [?] */
(PID.TID 0000.0001)                 2.700000000000000E-03
(PID.TID 0000.0001)     ;
(PID.TID 0000.0001) cDrag_2 = /* coef used in drag calculation [?] */
(PID.TID 0000.0001)                 1.420000000000000E-04
(PID.TID 0000.0001)     ;
(PID.TID 0000.0001) cDrag_3 = /* coef used in drag calculation [?] */
(PID.TID 0000.0001)                 7.640000000000000E-05
(PID.TID 0000.0001)     ;
(PID.TID 0000.0001) cStanton_1 = /* coef used in Stanton number calculation [?] */
(PID.TID 0000.0001)                 3.270000000000000E-02
(PID.TID 0000.0001)     ;
(PID.TID 0000.0001) cStanton_2 = /* coef used in Stanton number calculation [?] */
(PID.TID 0000.0001)                 1.800000000000000E-02
(PID.TID 0000.0001)     ;
(PID.TID 0000.0001) cDalton = /* coef used in Dalton number calculation [?] */
(PID.TID 0000.0001)                 3.460000000000000E-02
(PID.TID 0000.0001)     ;
(PID.TID 0000.0001) exf_scal_BulkCdn= /* Drag coefficient scaling factor [-] */
(PID.TID 0000.0001)                 1.000000000000000E+00
(PID.TID 0000.0001)     ;
(PID.TID 0000.0001) zolmin = /* minimum stability parameter [?] */
(PID.TID 0000.0001)                -1.000000000000000E+02
(PID.TID 0000.0001)     ;
(PID.TID 0000.0001) psim_fac = /* coef used in turbulent fluxes calculation [-] */
(PID.TID 0000.0001)                 5.000000000000000E+00
(PID.TID 0000.0001)     ;
(PID.TID 0000.0001) zref =  /* reference height [ m ] */
(PID.TID 0000.0001)                 1.000000000000000E+01
(PID.TID 0000.0001)     ;
(PID.TID 0000.0001) hu =  /* height of mean wind [ m ] */
(PID.TID 0000.0001)                 1.000000000000000E+01
(PID.TID 0000.0001)     ;
(PID.TID 0000.0001) ht =  /* height of mean temperature [ m ] */
(PID.TID 0000.0001)                 2.000000000000000E+00
(PID.TID 0000.0001)     ;
(PID.TID 0000.0001) hq =  /* height of mean spec.humidity [ m ] */
(PID.TID 0000.0001)                 2.000000000000000E+00
(PID.TID 0000.0001)     ;
(PID.TID 0000.0001) uMin = /* minimum wind speed [m/s] */
(PID.TID 0000.0001)                 5.000000000000000E-01
(PID.TID 0000.0001)     ;
(PID.TID 0000.0001) useStabilityFct_overIce= /* transfert Coeffs over sea-ice depend on stability */
(PID.TID 0000.0001)                   F
(PID.TID 0000.0001)     ;
(PID.TID 0000.0001) exf_iceCd = /* drag coefficient over sea-ice (fixed) [-] */
(PID.TID 0000.0001)                 1.630000000000000E-03
(PID.TID 0000.0001)     ;
(PID.TID 0000.0001) exf_iceCe = /* transfert coeff. over sea-ice, for Evap (fixed) [-] */
(PID.TID 0000.0001)                 1.630000000000000E-03
(PID.TID 0000.0001)     ;
(PID.TID 0000.0001) exf_iceCh = /* transfert coeff. over sea-ice, Sens.Heat.(fixed)[-] */
(PID.TID 0000.0001)                 1.630000000000000E-03
(PID.TID 0000.0001)     ;
(PID.TID 0000.0001) exf_albedo =  /* Sea-water albedo [-] */
(PID.TID 0000.0001)                 1.500000000000000E-01
(PID.TID 0000.0001)     ;
(PID.TID 0000.0001) useExfZenAlbedo = /* Sea-water albedo varies with zenith angle */
(PID.TID 0000.0001)                   F
(PID.TID 0000.0001)     ;
(PID.TID 0000.0001) select_ZenAlbedo = /* Sea-water albedo computation method */
(PID.TID 0000.0001)                       0
(PID.TID 0000.0001)     ;
(PID.TID 0000.0001) useExfZenIncoming = /* compute incoming solar radiation */
(PID.TID 0000.0001)                   F
(PID.TID 0000.0001)     ;
(PID.TID 0000.0001) ocean_emissivity = /* longwave ocean-surface emissivity [-] */
(PID.TID 0000.0001)                 9.700176366843034E-01
(PID.TID 0000.0001)     ;
(PID.TID 0000.0001) ice_emissivity = /* longwave seaice emissivity [-] */
(PID.TID 0000.0001)                 9.500000000000000E-01
(PID.TID 0000.0001)     ;
(PID.TID 0000.0001) snow_emissivity = /* longwave snow  emissivity [-] */
(PID.TID 0000.0001)                 9.500000000000000E-01
(PID.TID 0000.0001)     ;
(PID.TID 0000.0001) 
(PID.TID 0000.0001)  EXF main CPP flags:
(PID.TID 0000.0001) 
(PID.TID 0000.0001) // USE_EXF_INTERPOLATION:          NOT defined
(PID.TID 0000.0001) // ALLOW_ATM_TEMP:                     defined
(PID.TID 0000.0001) // ALLOW_ATM_WIND (useAtmWind):        defined
(PID.TID 0000.0001) // ALLOW_DOWNWARD_RADIATION:           defined
(PID.TID 0000.0001) // ALLOW_BULKFORMULAE:                 defined
(PID.TID 0000.0001) 
(PID.TID 0000.0001)    Net shortwave flux forcing starts at                0.
(PID.TID 0000.0001)    Net shortwave flux forcing period is                0.
(PID.TID 0000.0001)    Net shortwave flux forcing is read from file:
(PID.TID 0000.0001)    >>    <<
(PID.TID 0000.0001) 
(PID.TID 0000.0001)    Zonal wind forcing starts at                          0.
(PID.TID 0000.0001)    Zonal wind forcing period is                          0.
(PID.TID 0000.0001)    Zonal wind forcing is read from file:
(PID.TID 0000.0001)    >>    <<
(PID.TID 0000.0001) 
(PID.TID 0000.0001)    Meridional wind forcing starts at                     0.
(PID.TID 0000.0001)    Meridional wind forcing period is                     0.
(PID.TID 0000.0001)    Meridional wind forcing is read from file:
(PID.TID 0000.0001)    >>    <<
(PID.TID 0000.0001) 
(PID.TID 0000.0001)    Atmospheric temperature starts at                     0.
(PID.TID 0000.0001)    Atmospheric temperature period is                     0.
(PID.TID 0000.0001)    Atmospheric temperature is read from file:
(PID.TID 0000.0001)    >>    <<
(PID.TID 0000.0001) 
(PID.TID 0000.0001)    Atmospheric specific humidity starts at               0.
(PID.TID 0000.0001)    Atmospheric specific humidity period is               0.
(PID.TID 0000.0001)    Atmospheric specific humidity is read from file:
(PID.TID 0000.0001)    >>    <<
(PID.TID 0000.0001) 
(PID.TID 0000.0001)    Net longwave flux forcing starts at                 0.
(PID.TID 0000.0001)    Net longwave flux forcing period is                 0.
(PID.TID 0000.0001)    Net longwave flux forcing is read from file:
(PID.TID 0000.0001)    >>    <<
(PID.TID 0000.0001) 
(PID.TID 0000.0001)    Precipitation data set starts at                      0.
(PID.TID 0000.0001)    Precipitation data period is                          0.
(PID.TID 0000.0001)    Precipitation data is read from file:
(PID.TID 0000.0001)    >>    <<
(PID.TID 0000.0001) 
(PID.TID 0000.0001) // EXF_READ_EVAP:                  NOT defined
(PID.TID 0000.0001) 
(PID.TID 0000.0001) // ALLOW_RUNOFF:                       defined
(PID.TID 0000.0001)    Runoff starts at               0.
(PID.TID 0000.0001)    Runoff period is               0.
(PID.TID 0000.0001)    Runoff is read from file:
(PID.TID 0000.0001)    >>    <<
(PID.TID 0000.0001) 
(PID.TID 0000.0001)    Downward shortwave flux forcing starts at                0.
(PID.TID 0000.0001)    Downward shortwave flux forcing period is                0.
(PID.TID 0000.0001)    Downward shortwave flux forcing is read from file:
(PID.TID 0000.0001)    >>    <<
(PID.TID 0000.0001) 
(PID.TID 0000.0001)    Downward longwave flux forcing starts at                 0.
(PID.TID 0000.0001)    Downward longwave flux forcing period is                 0.
(PID.TID 0000.0001)    Downward longwave flux forcing is read from file:
(PID.TID 0000.0001)    >>    <<
(PID.TID 0000.0001) 
(PID.TID 0000.0001)    Atmospheric pressure forcing starts at                0.
(PID.TID 0000.0001)    Atmospheric pressure forcing period is                0.
(PID.TID 0000.0001)    Atmospheric pressureforcing is read from file:
(PID.TID 0000.0001)    >>    <<
(PID.TID 0000.0001) 
(PID.TID 0000.0001) // =======================================================
(PID.TID 0000.0001) // External forcing (EXF) climatology configuration :
(PID.TID 0000.0001) // =======================================================
(PID.TID 0000.0001) 
(PID.TID 0000.0001) // ALLOW_CLIMSST_RELAXATION:       NOT defined
(PID.TID 0000.0001) // ALLOW_CLIMSSS_RELAXATION:       NOT defined
(PID.TID 0000.0001) 
(PID.TID 0000.0001) // =======================================================
(PID.TID 0000.0001) // External forcing (EXF) configuration  >>> END <<<
(PID.TID 0000.0001) // =======================================================
(PID.TID 0000.0001) 
(PID.TID 0000.0001) DARWIN_INIT_FIXED:
(PID.TID 0000.0001) DARWIN_INIT_FIXED: wavebands:
(PID.TID 0000.0001) DARWIN_INIT_FIXED:  idx       low   rep      high    width
(PID.TID 0000.0001) DARWIN_INIT_FIXED:    1   400.000  400.   412.500   12.500
(PID.TID 0000.0001) DARWIN_INIT_FIXED:    2   412.500  425.   437.500   25.000
(PID.TID 0000.0001) DARWIN_INIT_FIXED:    3   437.500  450.   462.500   25.000
(PID.TID 0000.0001) DARWIN_INIT_FIXED:    4   462.500  475.   487.500   25.000
(PID.TID 0000.0001) DARWIN_INIT_FIXED:    5   487.500  500.   512.500   25.000
(PID.TID 0000.0001) DARWIN_INIT_FIXED:    6   512.500  525.   537.500   25.000
(PID.TID 0000.0001) DARWIN_INIT_FIXED:    7   537.500  550.   562.500   25.000
(PID.TID 0000.0001) DARWIN_INIT_FIXED:    8   562.500  575.   587.500   25.000
(PID.TID 0000.0001) DARWIN_INIT_FIXED:    9   587.500  600.   612.500   25.000
(PID.TID 0000.0001) DARWIN_INIT_FIXED:   10   612.500  625.   637.500   25.000
(PID.TID 0000.0001) DARWIN_INIT_FIXED:   11   637.500  650.   662.500   25.000
(PID.TID 0000.0001) DARWIN_INIT_FIXED:   12   662.500  675.   687.500   25.000
(PID.TID 0000.0001) DARWIN_INIT_FIXED:   13   687.500  700.   700.000   12.500
(PID.TID 0000.0001) DARWIN_INIT_FIXED:
(PID.TID 0000.0001) DARWIN_INIT_FIXED: water spectra:
(PID.TID 0000.0001) DARWIN_INIT_FIXED:  lam aw             bw
(PID.TID 0000.0001) DARWIN_INIT_FIXED: 400.         0.0063    0.0076
(PID.TID 0000.0001) DARWIN_INIT_FIXED: 425.         0.0051    0.0058
(PID.TID 0000.0001) DARWIN_INIT_FIXED: 450.         0.0083    0.0045
(PID.TID 0000.0001) DARWIN_INIT_FIXED: 475.         0.0119    0.0036
(PID.TID 0000.0001) DARWIN_INIT_FIXED: 500.         0.0215    0.0029
(PID.TID 0000.0001) DARWIN_INIT_FIXED: 525.         0.0407    0.0023
(PID.TID 0000.0001) DARWIN_INIT_FIXED: 550.         0.0550    0.0019
(PID.TID 0000.0001) DARWIN_INIT_FIXED: 575.         0.0849    0.0016
(PID.TID 0000.0001) DARWIN_INIT_FIXED: 600.         0.1995    0.0014
(PID.TID 0000.0001) DARWIN_INIT_FIXED: 625.         0.2850    0.0012
(PID.TID 0000.0001) DARWIN_INIT_FIXED: 650.         0.3512    0.0009
(PID.TID 0000.0001) DARWIN_INIT_FIXED: 675.         0.4559    0.0007
(PID.TID 0000.0001) DARWIN_INIT_FIXED: 700.         0.6433    0.0007
(PID.TID 0000.0001) DARWIN_INIT_FIXED:
(PID.TID 0000.0001) DARWIN_INIT_FIXED: phyto spectra:
(PID.TID 0000.0001) DARWIN_INIT_FIXED: type    1
(PID.TID 0000.0001) DARWIN_INIT_FIXED:  lam ap        ap_ps     bp        bbp
(PID.TID 0000.0001) DARWIN_INIT_FIXED: 400.    0.0304    0.0304    0.0900         0.000261000
(PID.TID 0000.0001) DARWIN_INIT_FIXED: 425.    0.0361    0.0361    0.0870         0.000252300
(PID.TID 0000.0001) DARWIN_INIT_FIXED: 450.    0.0378    0.0378    0.0870         0.000252300
(PID.TID 0000.0001) DARWIN_INIT_FIXED: 475.    0.0341    0.0341    0.0880         0.000255200
(PID.TID 0000.0001) DARWIN_INIT_FIXED: 500.    0.0238    0.0238    0.0920         0.000266800
(PID.TID 0000.0001) DARWIN_INIT_FIXED: 525.    0.0161    0.0161    0.0991         0.000287390
(PID.TID 0000.0001) DARWIN_INIT_FIXED: 550.    0.0089    0.0089    0.1082         0.000313780
(PID.TID 0000.0001) DARWIN_INIT_FIXED: 575.    0.0060    0.0060    0.1130         0.000327700
(PID.TID 0000.0001) DARWIN_INIT_FIXED: 600.    0.0061    0.0061    0.1150         0.000333500
(PID.TID 0000.0001) DARWIN_INIT_FIXED: 625.    0.0064    0.0064    0.1143         0.000331470
(PID.TID 0000.0001) DARWIN_INIT_FIXED: 650.    0.0062    0.0062    0.1140         0.000330600
(PID.TID 0000.0001) DARWIN_INIT_FIXED: 675.    0.0197    0.0197    0.1140         0.000330600
(PID.TID 0000.0001) DARWIN_INIT_FIXED: 700.    0.0019    0.0019    0.1110         0.000321900
(PID.TID 0000.0001) DARWIN_INIT_FIXED:
(PID.TID 0000.0001) DARWIN_INIT_FIXED: type    2
(PID.TID 0000.0001) DARWIN_INIT_FIXED:  lam ap        ap_ps     bp        bbp
(PID.TID 0000.0001) DARWIN_INIT_FIXED: 400.    0.0292    0.0222    0.3250         0.001040000
(PID.TID 0000.0001) DARWIN_INIT_FIXED: 425.    0.0407    0.0257    0.2974         0.000951680
(PID.TID 0000.0001) DARWIN_INIT_FIXED: 450.    0.0371    0.0153    0.2831         0.000905920
(PID.TID 0000.0001) DARWIN_INIT_FIXED: 475.    0.0296    0.0075    0.2790         0.000892800
(PID.TID 0000.0001) DARWIN_INIT_FIXED: 500.    0.0315    0.0158    0.2748         0.000879360
(PID.TID 0000.0001) DARWIN_INIT_FIXED: 525.    0.0257    0.0240    0.2594         0.000830080
(PID.TID 0000.0001) DARWIN_INIT_FIXED: 550.    0.0314    0.0314    0.2495         0.000798400
(PID.TID 0000.0001) DARWIN_INIT_FIXED: 575.    0.0134    0.0134    0.2307         0.000738240
(PID.TID 0000.0001) DARWIN_INIT_FIXED: 600.    0.0061    0.0061    0.2112         0.000675840
(PID.TID 0000.0001) DARWIN_INIT_FIXED: 625.    0.0072    0.0072    0.2020         0.000646400
(PID.TID 0000.0001) DARWIN_INIT_FIXED: 650.    0.0072    0.0072    0.1939         0.000620480
(PID.TID 0000.0001) DARWIN_INIT_FIXED: 675.    0.0164    0.0164    0.1766         0.000565120
(PID.TID 0000.0001) DARWIN_INIT_FIXED: 700.    0.0032    0.0032    0.1603         0.000512960
(PID.TID 0000.0001) DARWIN_INIT_FIXED:
(PID.TID 0000.0001) DARWIN_INIT_FIXED: type    3
(PID.TID 0000.0001) DARWIN_INIT_FIXED:  lam ap        ap_ps     bp        bbp
(PID.TID 0000.0001) DARWIN_INIT_FIXED: 400.    0.0245    0.0165    0.0523         0.000292357
(PID.TID 0000.0001) DARWIN_INIT_FIXED: 425.    0.0401    0.0225    0.0464         0.000259376
(PID.TID 0000.0001) DARWIN_INIT_FIXED: 450.    0.0473    0.0171    0.0478         0.000267202
(PID.TID 0000.0001) DARWIN_INIT_FIXED: 475.    0.0265    0.0054    0.0501         0.000280059
(PID.TID 0000.0001) DARWIN_INIT_FIXED: 500.    0.0198    0.0008    0.0510         0.000285090
(PID.TID 0000.0001) DARWIN_INIT_FIXED: 525.    0.0055    0.0016    0.0433         0.000242047
(PID.TID 0000.0001) DARWIN_INIT_FIXED: 550.    0.0027    0.0026    0.0364         0.000203476
(PID.TID 0000.0001) DARWIN_INIT_FIXED: 575.    0.0027    0.0027    0.0303         0.000169377
(PID.TID 0000.0001) DARWIN_INIT_FIXED: 600.    0.0033    0.0033    0.0277         0.000154843
(PID.TID 0000.0001) DARWIN_INIT_FIXED: 625.    0.0046    0.0046    0.0249         0.000139191
(PID.TID 0000.0001) DARWIN_INIT_FIXED: 650.    0.0053    0.0053    0.0205         0.000114595
(PID.TID 0000.0001) DARWIN_INIT_FIXED: 675.    0.0175    0.0175    0.0230         0.000128570
(PID.TID 0000.0001) DARWIN_INIT_FIXED: 700.    0.0035    0.0035    0.0223         0.000124657
(PID.TID 0000.0001) DARWIN_INIT_FIXED:
(PID.TID 0000.0001) DARWIN_INIT_FIXED: type    4
(PID.TID 0000.0001) DARWIN_INIT_FIXED:  lam ap        ap_ps     bp        bbp
(PID.TID 0000.0001) DARWIN_INIT_FIXED: 400.    0.0385    0.0220    0.0523         0.000292357
(PID.TID 0000.0001) DARWIN_INIT_FIXED: 425.    0.0611    0.0270    0.0464         0.000259376
(PID.TID 0000.0001) DARWIN_INIT_FIXED: 450.    0.0744    0.0239    0.0478         0.000267202
(PID.TID 0000.0001) DARWIN_INIT_FIXED: 475.    0.0583    0.0189    0.0501         0.000280059
(PID.TID 0000.0001) DARWIN_INIT_FIXED: 500.    0.0359    0.0019    0.0510         0.000285090
(PID.TID 0000.0001) DARWIN_INIT_FIXED: 525.    0.0122    0.0031    0.0433         0.000242047
(PID.TID 0000.0001) DARWIN_INIT_FIXED: 550.    0.0066    0.0063    0.0364         0.000203476
(PID.TID 0000.0001) DARWIN_INIT_FIXED: 575.    0.0054    0.0054    0.0303         0.000169377
(PID.TID 0000.0001) DARWIN_INIT_FIXED: 600.    0.0060    0.0060    0.0277         0.000154843
(PID.TID 0000.0001) DARWIN_INIT_FIXED: 625.    0.0066    0.0066    0.0249         0.000139191
(PID.TID 0000.0001) DARWIN_INIT_FIXED: 650.    0.0115    0.0115    0.0205         0.000114595
(PID.TID 0000.0001) DARWIN_INIT_FIXED: 675.    0.0179    0.0179    0.0230         0.000128570
(PID.TID 0000.0001) DARWIN_INIT_FIXED: 700.    0.0044    0.0044    0.0223         0.000124657
(PID.TID 0000.0001) DARWIN_INIT_FIXED:
(PID.TID 0000.0001) DARWIN_INIT_FIXED: particulate spectra:
(PID.TID 0000.0001) DARWIN_INIT_FIXED:  lam apart          bpart          bbpart
(PID.TID 0000.0001) DARWIN_INIT_FIXED: 400.   3.060000E-17   5.100000E-16   2.759100E-18
(PID.TID 0000.0001) DARWIN_INIT_FIXED: 425.   2.470000E-17   4.800000E-16   2.596800E-18
(PID.TID 0000.0001) DARWIN_INIT_FIXED: 450.   1.960000E-17   4.250000E-16   2.299250E-18
(PID.TID 0000.0001) DARWIN_INIT_FIXED: 475.   1.600000E-17   4.350000E-16   2.353350E-18
(PID.TID 0000.0001) DARWIN_INIT_FIXED: 500.   1.290000E-17   4.150000E-16   2.245150E-18
(PID.TID 0000.0001) DARWIN_INIT_FIXED: 525.   1.040000E-17   3.930000E-16   2.126130E-18
(PID.TID 0000.0001) DARWIN_INIT_FIXED: 550.   8.470000E-18   3.750000E-16   2.028750E-18
(PID.TID 0000.0001) DARWIN_INIT_FIXED: 575.   6.920000E-18   3.610000E-16   1.953010E-18
(PID.TID 0000.0001) DARWIN_INIT_FIXED: 600.   5.570000E-18   3.470000E-16   1.877270E-18
(PID.TID 0000.0001) DARWIN_INIT_FIXED: 625.   4.490000E-18   3.340000E-16   1.806940E-18
(PID.TID 0000.0001) DARWIN_INIT_FIXED: 650.   3.640000E-18   3.160000E-16   1.709560E-18
(PID.TID 0000.0001) DARWIN_INIT_FIXED: 675.   2.980000E-18   3.080000E-16   1.666280E-18
(PID.TID 0000.0001) DARWIN_INIT_FIXED: 700.   2.410000E-18   2.990000E-16   1.617590E-18
(PID.TID 0000.0001) DARWIN_INIT_FIXED:
(PID.TID 0000.0001) DARWIN_INIT_FIXED: particulate spectra in phosphorus units:
(PID.TID 0000.0001) DARWIN_INIT_FIXED:  lam apart_P        bpart_P        bbpart_P
(PID.TID 0000.0001) DARWIN_INIT_FIXED: 400.    0.030600000    0.510000000 0.002759100000
(PID.TID 0000.0001) DARWIN_INIT_FIXED: 425.    0.024700000    0.480000000 0.002596800000
(PID.TID 0000.0001) DARWIN_INIT_FIXED: 450.    0.019600000    0.425000000 0.002299250000
(PID.TID 0000.0001) DARWIN_INIT_FIXED: 475.    0.016000000    0.435000000 0.002353350000
(PID.TID 0000.0001) DARWIN_INIT_FIXED: 500.    0.012900000    0.415000000 0.002245150000
(PID.TID 0000.0001) DARWIN_INIT_FIXED: 525.    0.010400000    0.393000000 0.002126130000
(PID.TID 0000.0001) DARWIN_INIT_FIXED: 550.    0.008470000    0.375000000 0.002028750000
(PID.TID 0000.0001) DARWIN_INIT_FIXED: 575.    0.006920000    0.361000000 0.001953010000
(PID.TID 0000.0001) DARWIN_INIT_FIXED: 600.    0.005570000    0.347000000 0.001877270000
(PID.TID 0000.0001) DARWIN_INIT_FIXED: 625.    0.004490000    0.334000000 0.001806940000
(PID.TID 0000.0001) DARWIN_INIT_FIXED: 650.    0.003640000    0.316000000 0.001709560000
(PID.TID 0000.0001) DARWIN_INIT_FIXED: 675.    0.002980000    0.308000000 0.001666280000
(PID.TID 0000.0001) DARWIN_INIT_FIXED: 700.    0.002410000    0.299000000 0.001617590000
(PID.TID 0000.0001) DARWIN_INIT_FIXED:
(PID.TID 0000.0001) DARWIN_INIT_FIXED: laCDOM =   3
(PID.TID 0000.0001) QQ random port_rand            11231   0.4077530000000000
(PID.TID 0000.0001)  DARWIN_INIT_FIXED: opening data.traits
(PID.TID 0000.0001)  OPEN_COPY_DATA_FILE: opening file data.traits
(PID.TID 0000.0001) // =======================================================
(PID.TID 0000.0001) // Parameter file "data.traits"
(PID.TID 0000.0001) // =======================================================
(PID.TID 0000.0001) > &DARWIN_TRAITS
(PID.TID 0000.0001) > /
(PID.TID 0000.0001) 
(PID.TID 0000.0001)  ===================================
(PID.TID 0000.0001) ------------------------------------------------------------
(PID.TID 0000.0001) DIAGNOSTICS_SET_LEVELS: done
(PID.TID 0000.0001)  Total Nb of available Diagnostics: ndiagt=  2211
(PID.TID 0000.0001)  write list of available Diagnostics to file: available_diagnostics.log
(PID.TID 0000.0001) SETDIAG: Allocate 35 x  1 Levels for Diagnostic #   140 TRAC01
(PID.TID 0000.0001) SETDIAG: Allocate 35 x  1 Levels for Diagnostic #   152 TRAC02
(PID.TID 0000.0001) SETDIAG: Allocate 35 x  1 Levels for Diagnostic #   164 TRAC03
(PID.TID 0000.0001) SETDIAG: Allocate 35 x  1 Levels for Diagnostic #   176 TRAC04
(PID.TID 0000.0001) SETDIAG: Allocate 35 x  1 Levels for Diagnostic #   188 TRAC05
(PID.TID 0000.0001) SETDIAG: Allocate 35 x  1 Levels for Diagnostic #   200 TRAC06
(PID.TID 0000.0001) SETDIAG: Allocate 35 x  1 Levels for Diagnostic #   212 TRAC07
(PID.TID 0000.0001) SETDIAG: Allocate 35 x  1 Levels for Diagnostic #   224 TRAC08
(PID.TID 0000.0001) SETDIAG: Allocate 35 x  1 Levels for Diagnostic #   236 TRAC09
(PID.TID 0000.0001) SETDIAG: Allocate 35 x  1 Levels for Diagnostic #   248 TRAC10
(PID.TID 0000.0001) SETDIAG: Allocate 35 x  1 Levels for Diagnostic #   260 TRAC11
(PID.TID 0000.0001) SETDIAG: Allocate 35 x  1 Levels for Diagnostic #   272 TRAC12
(PID.TID 0000.0001) SETDIAG: Allocate 35 x  1 Levels for Diagnostic #   284 TRAC13
(PID.TID 0000.0001) SETDIAG: Allocate 35 x  1 Levels for Diagnostic #   296 TRAC14
(PID.TID 0000.0001) SETDIAG: Allocate 35 x  1 Levels for Diagnostic #   308 TRAC15
(PID.TID 0000.0001) SETDIAG: Allocate 35 x  1 Levels for Diagnostic #   320 TRAC16
(PID.TID 0000.0001) SETDIAG: Allocate 35 x  1 Levels for Diagnostic #   332 TRAC17
(PID.TID 0000.0001) SETDIAG: Allocate 35 x  1 Levels for Diagnostic #   344 TRAC18
(PID.TID 0000.0001) SETDIAG: Allocate 35 x  1 Levels for Diagnostic #   356 TRAC19
(PID.TID 0000.0001) SETDIAG: Allocate 35 x  1 Levels for Diagnostic #   368 TRAC20
(PID.TID 0000.0001) SETDIAG: Allocate 35 x  1 Levels for Diagnostic #   380 TRAC21
(PID.TID 0000.0001) SETDIAG: Allocate 35 x  1 Levels for Diagnostic #   392 TRAC22
(PID.TID 0000.0001) SETDIAG: Allocate 35 x  1 Levels for Diagnostic #   404 TRAC23
(PID.TID 0000.0001) SETDIAG: Allocate 35 x  1 Levels for Diagnostic #   416 TRAC24
(PID.TID 0000.0001) SETDIAG: Allocate 35 x  1 Levels for Diagnostic #   428 TRAC25
(PID.TID 0000.0001) SETDIAG: Allocate 35 x  1 Levels for Diagnostic #   440 TRAC26
(PID.TID 0000.0001) SETDIAG: Allocate 35 x  1 Levels for Diagnostic #   452 TRAC27
(PID.TID 0000.0001) SETDIAG: Allocate 35 x  1 Levels for Diagnostic #   464 TRAC28
(PID.TID 0000.0001) SETDIAG: Allocate 35 x  1 Levels for Diagnostic #   476 TRAC29
(PID.TID 0000.0001) SETDIAG: Allocate 35 x  1 Levels for Diagnostic #   488 TRAC30
(PID.TID 0000.0001) SETDIAG: Allocate 35 x  1 Levels for Diagnostic #   500 TRAC31
(PID.TID 0000.0001) SETDIAG: Allocate 35 x  1 Levels for Diagnostic #   512 TRAC32
(PID.TID 0000.0001) SETDIAG: Allocate 35 x  1 Levels for Diagnostic #   524 TRAC33
(PID.TID 0000.0001) SETDIAG: Allocate 35 x  1 Levels for Diagnostic #   536 TRAC34
(PID.TID 0000.0001) SETDIAG: Allocate 35 x  1 Levels for Diagnostic #   548 TRAC35
(PID.TID 0000.0001) SETDIAG: Allocate 35 x  1 Levels for Diagnostic #   560 TRAC36
(PID.TID 0000.0001) SETDIAG: Allocate 35 x  1 Levels for Diagnostic #   572 TRAC37
(PID.TID 0000.0001) SETDIAG: Allocate 35 x  1 Levels for Diagnostic #   584 TRAC38
(PID.TID 0000.0001) SETDIAG: Allocate 35 x  1 Levels for Diagnostic #   596 TRAC39
(PID.TID 0000.0001) SETDIAG: Allocate 35 x  1 Levels for Diagnostic #   608 TRAC40
(PID.TID 0000.0001) SETDIAG: Allocate 35 x  1 Levels for Diagnostic #   620 TRAC41
(PID.TID 0000.0001) SETDIAG: Allocate 35 x  1 Levels for Diagnostic #   632 TRAC42
(PID.TID 0000.0001) SETDIAG: Allocate 35 x  1 Levels for Diagnostic #   644 TRAC43
(PID.TID 0000.0001) SETDIAG: Allocate 35 x  1 Levels for Diagnostic #   656 TRAC44
(PID.TID 0000.0001) SETDIAG: Allocate 35 x  1 Levels for Diagnostic #   668 TRAC45
(PID.TID 0000.0001) SETDIAG: Allocate 35 x  1 Levels for Diagnostic #   680 TRAC46
(PID.TID 0000.0001) SETDIAG: Allocate 35 x  1 Levels for Diagnostic #   692 TRAC47
(PID.TID 0000.0001) SETDIAG: Allocate 35 x  1 Levels for Diagnostic #   704 TRAC48
(PID.TID 0000.0001) SETDIAG: Allocate 35 x  1 Levels for Diagnostic #   716 TRAC49
(PID.TID 0000.0001) SETDIAG: Allocate 35 x  1 Levels for Diagnostic #   728 TRAC50
(PID.TID 0000.0001) SETDIAG: Allocate 35 x  1 Levels for Diagnostic #   740 TRAC51
(PID.TID 0000.0001) SETDIAG: Allocate 35 x  1 Levels for Diagnostic #   752 TRAC52
(PID.TID 0000.0001) SETDIAG: Allocate 35 x  1 Levels for Diagnostic #   764 TRAC53
(PID.TID 0000.0001) SETDIAG: Allocate 35 x  1 Levels for Diagnostic #   776 TRAC54
(PID.TID 0000.0001) SETDIAG: Allocate 35 x  1 Levels for Diagnostic #   788 TRAC55
(PID.TID 0000.0001) SETDIAG: Allocate 35 x  1 Levels for Diagnostic #   800 TRAC56
(PID.TID 0000.0001) SETDIAG: Allocate 35 x  1 Levels for Diagnostic #   812 TRAC57
(PID.TID 0000.0001) SETDIAG: Allocate 35 x  1 Levels for Diagnostic #   824 TRAC58
(PID.TID 0000.0001) SETDIAG: Allocate 35 x  1 Levels for Diagnostic #   836 TRAC59
(PID.TID 0000.0001) SETDIAG: Allocate 35 x  1 Levels for Diagnostic #   848 TRAC60
(PID.TID 0000.0001) SETDIAG: Allocate 35 x  1 Levels for Diagnostic #   860 TRAC61
(PID.TID 0000.0001) SETDIAG: Allocate 35 x  1 Levels for Diagnostic #   872 TRAC62
(PID.TID 0000.0001) SETDIAG: Allocate 35 x  1 Levels for Diagnostic #   884 TRAC63
(PID.TID 0000.0001) SETDIAG: Allocate 35 x  1 Levels for Diagnostic #   896 TRAC64
(PID.TID 0000.0001) SETDIAG: Allocate 35 x  1 Levels for Diagnostic #   908 TRAC65
(PID.TID 0000.0001) SETDIAG: Allocate 35 x  1 Levels for Diagnostic #   920 TRAC66
(PID.TID 0000.0001) SETDIAG: Allocate 35 x  1 Levels for Diagnostic #   932 TRAC67
(PID.TID 0000.0001) SETDIAG: Allocate 35 x  1 Levels for Diagnostic #   944 TRAC68
(PID.TID 0000.0001) SETDIAG: Allocate 35 x  1 Levels for Diagnostic #   956 TRAC69
(PID.TID 0000.0001) SETDIAG: Allocate 35 x  1 Levels for Diagnostic #   968 TRAC70
(PID.TID 0000.0001) SETDIAG: Allocate 35 x  1 Levels for Diagnostic #   980 TRAC71
(PID.TID 0000.0001) SETDIAG: Allocate 35 x  1 Levels for Diagnostic #   992 TRAC72
(PID.TID 0000.0001) SETDIAG: Allocate 35 x  1 Levels for Diagnostic #  1004 TRAC73
(PID.TID 0000.0001) SETDIAG: Allocate 35 x  1 Levels for Diagnostic #  1016 TRAC74
(PID.TID 0000.0001) SETDIAG: Allocate 35 x  1 Levels for Diagnostic #  1028 TRAC75
(PID.TID 0000.0001) SETDIAG: Allocate 35 x  1 Levels for Diagnostic #  1040 TRAC76
(PID.TID 0000.0001) SETDIAG: Allocate 35 x  1 Levels for Diagnostic #  1052 TRAC77
(PID.TID 0000.0001) SETDIAG: Allocate 35 x  1 Levels for Diagnostic #  1064 TRAC78
(PID.TID 0000.0001) SETDIAG: Allocate 35 x  1 Levels for Diagnostic #  1076 TRAC79
(PID.TID 0000.0001) SETDIAG: Allocate 35 x  1 Levels for Diagnostic #  1088 TRAC80
(PID.TID 0000.0001) SETDIAG: Allocate 35 x  1 Levels for Diagnostic #  1100 TRAC81
(PID.TID 0000.0001) SETDIAG: Allocate 35 x  1 Levels for Diagnostic #  1112 TRAC82
(PID.TID 0000.0001) SETDIAG: Allocate 35 x  1 Levels for Diagnostic #  1124 TRAC83
(PID.TID 0000.0001) SETDIAG: Allocate 35 x  1 Levels for Diagnostic #  1136 TRAC84
(PID.TID 0000.0001) SETDIAG: Allocate 35 x  1 Levels for Diagnostic #  1148 TRAC85
(PID.TID 0000.0001) SETDIAG: Allocate 35 x  1 Levels for Diagnostic #  1160 TRAC86
(PID.TID 0000.0001) SETDIAG: Allocate 35 x  1 Levels for Diagnostic #  1172 TRAC87
(PID.TID 0000.0001) SETDIAG: Allocate 35 x  1 Levels for Diagnostic #  1184 TRAC88
(PID.TID 0000.0001) SETDIAG: Allocate 35 x  1 Levels for Diagnostic #  1196 TRAC89
(PID.TID 0000.0001) SETDIAG: Allocate 35 x  1 Levels for Diagnostic #  1208 TRAC90
(PID.TID 0000.0001) SETDIAG: Allocate 35 x  1 Levels for Diagnostic #  1220 TRAC91
(PID.TID 0000.0001) SETDIAG: Allocate 35 x  1 Levels for Diagnostic #  1232 TRAC92
(PID.TID 0000.0001) SETDIAG: Allocate 35 x  1 Levels for Diagnostic #  1244 TRAC93
(PID.TID 0000.0001) SETDIAG: Allocate 35 x  1 Levels for Diagnostic #  1256 TRAC94
(PID.TID 0000.0001) SETDIAG: Allocate 35 x  1 Levels for Diagnostic #  1268 TRAC95
(PID.TID 0000.0001) SETDIAG: Allocate 35 x  1 Levels for Diagnostic #  1280 TRAC96
(PID.TID 0000.0001) SETDIAG: Allocate 35 x  1 Levels for Diagnostic #  1292 TRAC97
(PID.TID 0000.0001) SETDIAG: Allocate 35 x  1 Levels for Diagnostic #  1309 PAR01
(PID.TID 0000.0001) SETDIAG: Allocate 35 x  1 Levels for Diagnostic #  1328 DIC_c01
(PID.TID 0000.0001) SETDIAG: Allocate 35 x  1 Levels for Diagnostic #  1339 DIC_c02
(PID.TID 0000.0001) SETDIAG: Allocate 35 x  1 Levels for Diagnostic #  1329 c01_DOC
(PID.TID 0000.0001) SETDIAG: Allocate 35 x  1 Levels for Diagnostic #  1340 c02_DOC
(PID.TID 0000.0001) SETDIAG: Allocate 35 x  1 Levels for Diagnostic #  1330 c01_POC
(PID.TID 0000.0001) SETDIAG: Allocate 35 x  1 Levels for Diagnostic #  1341 c02_POC
(PID.TID 0000.0001) SETDIAG: Allocate 35 x  1 Levels for Diagnostic #  1308 PARF
(PID.TID 0000.0001) SETDIAG: Allocate 35 x  1 Levels for Diagnostic #  1305 atten
(PID.TID 0000.0001) SETDIAG: Allocate 35 x  1 Levels for Diagnostic #  1307 surfPAR
(PID.TID 0000.0001) SETDIAG: Allocate 35 x  1 Levels for Diagnostic #  1306 exfPAR
(PID.TID 0000.0001) SETDIAG: Allocate 35 x  1 Levels for Diagnostic #  1322 limn01
(PID.TID 0000.0001) SETDIAG: Allocate 35 x  1 Levels for Diagnostic #  1323 limp01
(PID.TID 0000.0001) SETDIAG: Allocate 35 x  1 Levels for Diagnostic #  1324 limsi01
(PID.TID 0000.0001) SETDIAG: Allocate 35 x  1 Levels for Diagnostic #  1325 limfe01
(PID.TID 0000.0001) SETDIAG: Allocate 35 x  1 Levels for Diagnostic #  1326 limI01
(PID.TID 0000.0001) SETDIAG: Allocate 35 x  1 Levels for Diagnostic #  1327 limT01
(PID.TID 0000.0001) SETDIAG: Allocate 35 x  1 Levels for Diagnostic #  1331 c01_c
(PID.TID 0000.0001) SETDIAG: Allocate 35 x  1 Levels for Diagnostic #  1342 c02_c
(PID.TID 0000.0001) SETDIAG: Allocate 35 x  1 Levels for Diagnostic #  1354 c_c03
(PID.TID 0000.0001) SETDIAG: Allocate 35 x  1 Levels for Diagnostic #  1365 c_c04
(PID.TID 0000.0001) SETDIAG: Allocate 35 x  1 Levels for Diagnostic #  2202 c_DOC
(PID.TID 0000.0001) SETDIAG: Allocate 35 x  1 Levels for Diagnostic #  2203 c_POC
(PID.TID 0000.0001) SETDIAG: Allocate 35 x  1 Levels for Diagnostic #  2204 c_PIC
(PID.TID 0000.0001) SETDIAG: Allocate 35 x  1 Levels for Diagnostic #  2205 n_DON
(PID.TID 0000.0001) SETDIAG: Allocate 35 x  1 Levels for Diagnostic #  2206 n_PON
(PID.TID 0000.0001) SETDIAG: Allocate 35 x  1 Levels for Diagnostic #  2207 p_DOP
(PID.TID 0000.0001) SETDIAG: Allocate 35 x  1 Levels for Diagnostic #  2208 p_POP
(PID.TID 0000.0001)   space allocated for all diagnostics:    4375 levels
(PID.TID 0000.0001) DIAGNOSTICS_SET_POINTERS: Set levels for Outp.Stream: darwin
(PID.TID 0000.0001)  Levels:       1.   2.   3.   4.   5.   6.   7.   8.   9.  10.  11.  12.  13.  14.  15.  16.  17.  18.  19.  20.
(PID.TID 0000.0001)  Levels:      21.  22.  23.  24.  25.  26.  27.  28.  29.  30.  31.  32.  33.  34.  35.
(PID.TID 0000.0001) DIAGNOSTICS_SET_POINTERS: done
(PID.TID 0000.0001) ------------------------------------------------------------
(PID.TID 0000.0001) DIAGSTATS_SET_REGIONS: define no region
(PID.TID 0000.0001) ------------------------------------------------------------
(PID.TID 0000.0001)   space allocated for all stats-diags:       0 levels
(PID.TID 0000.0001) DIAGSTATS_SET_POINTERS: done
(PID.TID 0000.0001) ------------------------------------------------------------
(PID.TID 0000.0001) %MON fCori_max                    =  -4.3855676645210050E-05
(PID.TID 0000.0001) %MON fCori_min                    =  -4.3855676645210050E-05
(PID.TID 0000.0001) %MON fCori_mean                   =  -4.3855676645210050E-05
(PID.TID 0000.0001) %MON fCori_sd                     =   0.0000000000000000E+00
(PID.TID 0000.0001) %MON fCoriG_max                   =  -4.5067801836624727E-05
(PID.TID 0000.0001) %MON fCoriG_min                   =  -4.5067801836624727E-05
(PID.TID 0000.0001) %MON fCoriG_mean                  =  -4.5067801836624727E-05
(PID.TID 0000.0001) %MON fCoriG_sd                    =   0.0000000000000000E+00
(PID.TID 0000.0001) %MON fCoriCos_max                 =   1.3909243610206993E-04
(PID.TID 0000.0001) %MON fCoriCos_min                 =   1.3909243610206993E-04
(PID.TID 0000.0001) %MON fCoriCos_mean                =   1.3909243610206993E-04
(PID.TID 0000.0001) %MON fCoriCos_sd                  =   0.0000000000000000E+00
(PID.TID 0000.0001) INI_CG2D: CG2D normalisation factor =  2.7288038648017932E-04
(PID.TID 0000.0001) 
(PID.TID 0000.0001) // =======================================================
(PID.TID 0000.0001) // Model configuration
(PID.TID 0000.0001) // =======================================================
(PID.TID 0000.0001) //
(PID.TID 0000.0001) // "Physical" paramters ( PARM01 in namelist )
(PID.TID 0000.0001) //
(PID.TID 0000.0001) buoyancyRelation = /* Type of relation to get Buoyancy */
(PID.TID 0000.0001)               'OCEANIC'
(PID.TID 0000.0001)     ;
(PID.TID 0000.0001) fluidIsAir   =  /* fluid major constituent is Air */
(PID.TID 0000.0001)                   F
(PID.TID 0000.0001)     ;
(PID.TID 0000.0001) fluidIsWater =  /* fluid major constituent is Water */
(PID.TID 0000.0001)                   T
(PID.TID 0000.0001)     ;
(PID.TID 0000.0001) usingPCoords =  /* use p (or p*) vertical coordinate */
(PID.TID 0000.0001)                   F
(PID.TID 0000.0001)     ;
(PID.TID 0000.0001) usingZCoords =  /* use z (or z*) vertical coordinate */
(PID.TID 0000.0001)                   T
(PID.TID 0000.0001)     ;
(PID.TID 0000.0001) tRef =   /* Reference temperature profile ( oC or K ) */
(PID.TID 0000.0001)                 2.650000000000000E+01,      /* K =  1 */
(PID.TID 0000.0001)                 2.610000000000000E+01,      /* K =  2 */
(PID.TID 0000.0001)                 2.600000000000000E+01,      /* K =  3 */
(PID.TID 0000.0001)                 2.550000000000000E+01,      /* K =  4 */
(PID.TID 0000.0001)                 2.540000000000000E+01,      /* K =  5 */
(PID.TID 0000.0001)                 2.490000000000000E+01,      /* K =  6 */
(PID.TID 0000.0001)                 2.450000000000000E+01,      /* K =  7 */
(PID.TID 0000.0001)                 2.400000000000000E+01,      /* K =  8 */
(PID.TID 0000.0001)                 2.370000000000000E+01,      /* K =  9 */
(PID.TID 0000.0001)                 2.330000000000000E+01,      /* K = 10 */
(PID.TID 0000.0001)                 2.310000000000000E+01,      /* K = 11 */
(PID.TID 0000.0001)                 2.280000000000000E+01,      /* K = 12 */
(PID.TID 0000.0001)                 2.250000000000000E+01,      /* K = 13 */
(PID.TID 0000.0001)                 2.210000000000000E+01,      /* K = 14 */
(PID.TID 0000.0001)                 2.160000000000000E+01,      /* K = 15 */
(PID.TID 0000.0001)                 2.060000000000000E+01,      /* K = 16 */
(PID.TID 0000.0001)                 1.950000000000000E+01,      /* K = 17 */
(PID.TID 0000.0001)                 1.840000000000000E+01,      /* K = 18 */
(PID.TID 0000.0001)                 1.730000000000000E+01,      /* K = 19 */
(PID.TID 0000.0001)                 1.660000000000000E+01,      /* K = 20 */
(PID.TID 0000.0001)                 1.550000000000000E+01,      /* K = 21 */
(PID.TID 0000.0001)                 1.460000000000000E+01,      /* K = 22 */
(PID.TID 0000.0001)                 1.380000000000000E+01,      /* K = 23 */
(PID.TID 0000.0001)                 1.310000000000000E+01,      /* K = 24 */
(PID.TID 0000.0001)                 1.160000000000000E+01,      /* K = 25 */
(PID.TID 0000.0001)                 1.010000000000000E+01,      /* K = 26 */
(PID.TID 0000.0001)                 7.700000000000000E+00,      /* K = 27 */
(PID.TID 0000.0001)                 5.300000000000000E+00,      /* K = 28 */
(PID.TID 0000.0001)                 4.100000000000000E+00,      /* K = 29 */
(PID.TID 0000.0001)     2 @  3.700000000000000E+00,             /* K = 30: 31 */
(PID.TID 0000.0001)                 3.400000000000000E+00,      /* K = 32 */
(PID.TID 0000.0001)                 3.000000000000000E+00,      /* K = 33 */
(PID.TID 0000.0001)                 2.800000000000000E+00,      /* K = 34 */
(PID.TID 0000.0001)                 2.600000000000000E+00       /* K = 35 */
(PID.TID 0000.0001)     ;
(PID.TID 0000.0001) sRef =   /* Reference salinity profile ( psu ) */
(PID.TID 0000.0001)    35 @  3.500000000000000E+01              /* K =  1: 35 */
(PID.TID 0000.0001)     ;
(PID.TID 0000.0001) viscAh  =   /* Lateral eddy viscosity ( m^2/s ) */
(PID.TID 0000.0001)                 0.000000000000000E+00
(PID.TID 0000.0001)     ;
(PID.TID 0000.0001) viscAhMax = /* Maximum lateral eddy viscosity ( m^2/s ) */
(PID.TID 0000.0001)                 1.000000000000000E+21
(PID.TID 0000.0001)     ;
(PID.TID 0000.0001) viscAhGrid = /* Grid dependent lateral eddy viscosity ( non-dim. ) */
(PID.TID 0000.0001)                 0.000000000000000E+00
(PID.TID 0000.0001)     ;
(PID.TID 0000.0001) useFullLeith = /* Use Full Form of Leith Viscosity on/off flag*/
(PID.TID 0000.0001)                   F
(PID.TID 0000.0001)     ;
(PID.TID 0000.0001) useStrainTensionVisc= /* Use StrainTension Form of Viscous Operator flag*/
(PID.TID 0000.0001)                   F
(PID.TID 0000.0001)     ;
(PID.TID 0000.0001) useAreaViscLength = /* Use area for visc length instead of geom. mean*/
(PID.TID 0000.0001)                   F
(PID.TID 0000.0001)     ;
(PID.TID 0000.0001) viscC2leith = /* Leith harmonic visc. factor (on grad(vort),non-dim.) */
(PID.TID 0000.0001)                 0.000000000000000E+00
(PID.TID 0000.0001)     ;
(PID.TID 0000.0001) viscC2leithD = /* Leith harmonic viscosity factor (on grad(div),non-dim.)*/
(PID.TID 0000.0001)                 0.000000000000000E+00
(PID.TID 0000.0001)     ;
(PID.TID 0000.0001) viscC2smag = /* Smagorinsky harmonic viscosity factor (non-dim.) */
(PID.TID 0000.0001)                 0.000000000000000E+00
(PID.TID 0000.0001)     ;
(PID.TID 0000.0001) viscA4  =   /* Lateral biharmonic viscosity ( m^4/s ) */
(PID.TID 0000.0001)                 0.000000000000000E+00
(PID.TID 0000.0001)     ;
(PID.TID 0000.0001) viscA4Max = /* Maximum biharmonic viscosity ( m^2/s ) */
(PID.TID 0000.0001)                 1.000000000000000E+21
(PID.TID 0000.0001)     ;
(PID.TID 0000.0001) viscA4Grid = /* Grid dependent biharmonic viscosity ( non-dim. ) */
(PID.TID 0000.0001)                 0.000000000000000E+00
(PID.TID 0000.0001)     ;
(PID.TID 0000.0001) viscC4leith = /* Leith biharm viscosity factor (on grad(vort), non-dim.)*/
(PID.TID 0000.0001)                 0.000000000000000E+00
(PID.TID 0000.0001)     ;
(PID.TID 0000.0001) viscC4leithD = /* Leith biharm viscosity factor (on grad(div), non-dim.) */
(PID.TID 0000.0001)                 0.000000000000000E+00
(PID.TID 0000.0001)     ;
(PID.TID 0000.0001) viscC4Smag = /* Smagorinsky biharm viscosity factor (non-dim) */
(PID.TID 0000.0001)                 0.000000000000000E+00
(PID.TID 0000.0001)     ;
(PID.TID 0000.0001) no_slip_sides =  /* Viscous BCs: No-slip sides */
(PID.TID 0000.0001)                   F
(PID.TID 0000.0001)     ;
(PID.TID 0000.0001) sideDragFactor = /* side-drag scaling factor (non-dim) */
(PID.TID 0000.0001)                 2.000000000000000E+00
(PID.TID 0000.0001)     ;
(PID.TID 0000.0001) viscArNr = /* vertical profile of vertical viscosity ( m^2/s )*/
(PID.TID 0000.0001)    35 @  0.000000000000000E+00              /* K =  1: 35 */
(PID.TID 0000.0001)     ;
(PID.TID 0000.0001) no_slip_bottom =  /* Viscous BCs: No-slip bottom */
(PID.TID 0000.0001)                   T
(PID.TID 0000.0001)     ;
(PID.TID 0000.0001) bottomDragLinear = /* linear bottom-drag coefficient ( m/s ) */
(PID.TID 0000.0001)                 0.000000000000000E+00
(PID.TID 0000.0001)     ;
(PID.TID 0000.0001) bottomDragQuadratic = /* quadratic bottom-drag coefficient (-) */
(PID.TID 0000.0001)                 0.000000000000000E+00
(PID.TID 0000.0001)     ;
(PID.TID 0000.0001) diffKhT =   /* Laplacian diffusion of heat laterally ( m^2/s ) */
(PID.TID 0000.0001)                 1.000000000000000E+02
(PID.TID 0000.0001)     ;
(PID.TID 0000.0001) diffK4T =   /* Biharmonic diffusion of heat laterally ( m^4/s ) */
(PID.TID 0000.0001)                 0.000000000000000E+00
(PID.TID 0000.0001)     ;
(PID.TID 0000.0001) diffKhS =   /* Laplacian diffusion of salt laterally ( m^2/s ) */
(PID.TID 0000.0001)                 0.000000000000000E+00
(PID.TID 0000.0001)     ;
(PID.TID 0000.0001) diffK4S =   /* Biharmonic diffusion of salt laterally ( m^4/s ) */
(PID.TID 0000.0001)                 0.000000000000000E+00
(PID.TID 0000.0001)     ;
(PID.TID 0000.0001) diffKrNrT = /* vertical profile of vertical diffusion of Temp ( m^2/s )*/
(PID.TID 0000.0001)    35 @  1.000000000000000E-04              /* K =  1: 35 */
(PID.TID 0000.0001)     ;
(PID.TID 0000.0001) diffKrNrS = /* vertical profile of vertical diffusion of Salt ( m^2/s )*/
(PID.TID 0000.0001)    35 @  0.000000000000000E+00              /* K =  1: 35 */
(PID.TID 0000.0001)     ;
(PID.TID 0000.0001) diffKrBL79surf = /* Surface diffusion for Bryan and Lewis 79 ( m^2/s ) */
(PID.TID 0000.0001)                 0.000000000000000E+00
(PID.TID 0000.0001)     ;
(PID.TID 0000.0001) diffKrBL79deep = /* Deep diffusion for Bryan and Lewis 1979 ( m^2/s ) */
(PID.TID 0000.0001)                 0.000000000000000E+00
(PID.TID 0000.0001)     ;
(PID.TID 0000.0001) diffKrBL79scl = /* Depth scale for Bryan and Lewis 1979 ( m ) */
(PID.TID 0000.0001)                 2.000000000000000E+02
(PID.TID 0000.0001)     ;
(PID.TID 0000.0001) diffKrBL79Ho = /* Turning depth for Bryan and Lewis 1979 ( m ) */
(PID.TID 0000.0001)                -2.000000000000000E+03
(PID.TID 0000.0001)     ;
(PID.TID 0000.0001) ivdc_kappa = /* Implicit Vertical Diffusivity for Convection ( m^2/s) */
(PID.TID 0000.0001)                 0.000000000000000E+00
(PID.TID 0000.0001)     ;
(PID.TID 0000.0001) hMixCriteria=  /* Criteria for mixed-layer diagnostic */
(PID.TID 0000.0001)                -8.000000000000000E-01
(PID.TID 0000.0001)     ;
(PID.TID 0000.0001) dRhoSmall =  /* Parameter for mixed-layer diagnostic */
(PID.TID 0000.0001)                 1.000000000000000E-06
(PID.TID 0000.0001)     ;
(PID.TID 0000.0001) hMixSmooth=  /* Smoothing parameter for mixed-layer diagnostic */
(PID.TID 0000.0001)                 0.000000000000000E+00
(PID.TID 0000.0001)     ;
(PID.TID 0000.0001) eosType =  /* Type of Equation of State */
(PID.TID 0000.0001)               'JMD95Z'
(PID.TID 0000.0001)     ;
(PID.TID 0000.0001) celsius2K = /* 0 degree Celsius converted to Kelvin ( K ) */
(PID.TID 0000.0001)                 2.731500000000000E+02
(PID.TID 0000.0001)     ;
(PID.TID 0000.0001) rhoConst  = /* Reference density (Boussinesq)  ( kg/m^3 ) */
(PID.TID 0000.0001)                 9.998000000000000E+02
(PID.TID 0000.0001)     ;
(PID.TID 0000.0001) rhoFacC = /* normalized Reference density @ cell-Center (-) */
(PID.TID 0000.0001)    35 @  1.000000000000000E+00              /* K =  1: 35 */
(PID.TID 0000.0001)     ;
(PID.TID 0000.0001) rhoFacF = /* normalized Reference density @ W-Interface (-) */
(PID.TID 0000.0001)    36 @  1.000000000000000E+00              /* K =  1: 36 */
(PID.TID 0000.0001)     ;
(PID.TID 0000.0001) rhoConstFresh = /* Fresh-water reference density ( kg/m^3 ) */
(PID.TID 0000.0001)                 9.998000000000000E+02
(PID.TID 0000.0001)     ;
(PID.TID 0000.0001) gravity =   /* Gravitational acceleration ( m/s^2 ) */
(PID.TID 0000.0001)                 9.810000000000000E+00
(PID.TID 0000.0001)     ;
(PID.TID 0000.0001) gBaro =   /* Barotropic gravity ( m/s^2 ) */
(PID.TID 0000.0001)                 9.810000000000000E+00
(PID.TID 0000.0001)     ;
(PID.TID 0000.0001) rotationPeriod =   /* Rotation Period ( s ) */
(PID.TID 0000.0001)                 8.616400000000000E+04
(PID.TID 0000.0001)     ;
(PID.TID 0000.0001) omega =   /* Angular velocity ( rad/s ) */
(PID.TID 0000.0001)                 7.292123516990375E-05
(PID.TID 0000.0001)     ;
(PID.TID 0000.0001) f0 =   /* Reference coriolis parameter ( 1/s ) */
(PID.TID 0000.0001)                 1.000000000000000E-04
(PID.TID 0000.0001)     ;
(PID.TID 0000.0001) beta =   /* Beta ( 1/(m.s) ) */
(PID.TID 0000.0001)                 9.999999999999999E-12
(PID.TID 0000.0001)     ;
(PID.TID 0000.0001) fPrime =   /* Second coriolis parameter ( 1/s ) */
(PID.TID 0000.0001)                 0.000000000000000E+00
(PID.TID 0000.0001)     ;
(PID.TID 0000.0001) rigidLid =   /* Rigid lid on/off flag */
(PID.TID 0000.0001)                   T
(PID.TID 0000.0001)     ;
(PID.TID 0000.0001) implicitFreeSurface =   /* Implicit free surface on/off flag */
(PID.TID 0000.0001)                   F
(PID.TID 0000.0001)     ;
(PID.TID 0000.0001) freeSurfFac =   /* Implicit free surface factor */
(PID.TID 0000.0001)                 0.000000000000000E+00
(PID.TID 0000.0001)     ;
(PID.TID 0000.0001) implicSurfPress =  /* Surface Pressure implicit factor (0-1)*/
(PID.TID 0000.0001)                 1.000000000000000E+00
(PID.TID 0000.0001)     ;
(PID.TID 0000.0001) implicDiv2Dflow =  /* Barot. Flow Div. implicit factor (0-1)*/
(PID.TID 0000.0001)                 1.000000000000000E+00
(PID.TID 0000.0001)     ;
(PID.TID 0000.0001) uniformLin_PhiSurf = /* use uniform Bo_surf on/off flag*/
(PID.TID 0000.0001)                   T
(PID.TID 0000.0001)     ;
(PID.TID 0000.0001) uniformFreeSurfLev = /* free-surface level-index is uniform */
(PID.TID 0000.0001)                   T
(PID.TID 0000.0001)     ;
(PID.TID 0000.0001) hFacMin =   /* minimum partial cell factor (hFac) */
(PID.TID 0000.0001)                 1.000000000000000E+00
(PID.TID 0000.0001)     ;
(PID.TID 0000.0001) hFacMinDr = /* minimum partial cell thickness ( m) */
(PID.TID 0000.0001)                 1.000000000000000E+00
(PID.TID 0000.0001)     ;
(PID.TID 0000.0001) exactConserv =  /* Exact Volume Conservation on/off flag*/
(PID.TID 0000.0001)                   F
(PID.TID 0000.0001)     ;
(PID.TID 0000.0001) linFSConserveTr = /* Tracer correction for Lin Free Surface on/off flag*/
(PID.TID 0000.0001)                   F
(PID.TID 0000.0001)     ;
(PID.TID 0000.0001) nonlinFreeSurf = /* Non-linear Free Surf. options (-1,0,1,2,3)*/
(PID.TID 0000.0001)                       0
(PID.TID 0000.0001)      -1,0= Off ; 1,2,3= On, 2=+rescale gU,gV, 3=+update cg2d solv.
(PID.TID 0000.0001)     ;
(PID.TID 0000.0001) hFacInf =   /* lower threshold for hFac (nonlinFreeSurf only)*/
(PID.TID 0000.0001)                 2.000000000000000E-01
(PID.TID 0000.0001)     ;
(PID.TID 0000.0001) hFacSup =   /* upper threshold for hFac (nonlinFreeSurf only)*/
(PID.TID 0000.0001)                 2.000000000000000E+00
(PID.TID 0000.0001)     ;
(PID.TID 0000.0001) select_rStar = /* r* Vertical coord. options (=0 r coord.; >0 uses r*)*/
(PID.TID 0000.0001)                       0
(PID.TID 0000.0001)     ;
(PID.TID 0000.0001) useRealFreshWaterFlux = /* Real Fresh Water Flux on/off flag*/
(PID.TID 0000.0001)                   F
(PID.TID 0000.0001)     ;
(PID.TID 0000.0001) temp_EvPrRn = /* Temp. of Evap/Prec/R (UNSET=use local T)(oC)*/
(PID.TID 0000.0001)                 1.234567000000000E+05
(PID.TID 0000.0001)     ;
(PID.TID 0000.0001) salt_EvPrRn = /* Salin. of Evap/Prec/R (UNSET=use local S)(psu)*/
(PID.TID 0000.0001)                 0.000000000000000E+00
(PID.TID 0000.0001)     ;
(PID.TID 0000.0001) selectAddFluid = /* option for mass source/sink of fluid (=0: off) */
(PID.TID 0000.0001)                       0
(PID.TID 0000.0001)     ;
(PID.TID 0000.0001) temp_addMass = /* Temp. of addMass array (UNSET=use local T)(oC)*/
(PID.TID 0000.0001)                 1.234567000000000E+05
(PID.TID 0000.0001)     ;
(PID.TID 0000.0001) salt_addMass = /* Salin. of addMass array (UNSET=use local S)(psu)*/
(PID.TID 0000.0001)                 0.000000000000000E+00
(PID.TID 0000.0001)     ;
(PID.TID 0000.0001) convertFW2Salt = /* convert F.W. Flux to Salt Flux (-1=use local S)(psu)*/
(PID.TID 0000.0001)                 3.500000000000000E+01
(PID.TID 0000.0001)     ;
(PID.TID 0000.0001) use3Dsolver = /* use 3-D pressure solver on/off flag */
(PID.TID 0000.0001)                   F
(PID.TID 0000.0001)     ;
(PID.TID 0000.0001) nonHydrostatic =  /* Non-Hydrostatic on/off flag */
(PID.TID 0000.0001)                   F
(PID.TID 0000.0001)     ;
(PID.TID 0000.0001) nh_Am2 = /* Non-Hydrostatic terms scaling factor */
(PID.TID 0000.0001)                 1.000000000000000E+00
(PID.TID 0000.0001)     ;
(PID.TID 0000.0001) implicitNHPress = /* Non-Hyd Pressure implicit factor (0-1)*/
(PID.TID 0000.0001)                 1.000000000000000E+00
(PID.TID 0000.0001)     ;
(PID.TID 0000.0001) selectNHfreeSurf = /* Non-Hyd (free-)Surface option */
(PID.TID 0000.0001)                       0
(PID.TID 0000.0001)     ;
(PID.TID 0000.0001) quasiHydrostatic = /* Quasi-Hydrostatic on/off flag */
(PID.TID 0000.0001)                   F
(PID.TID 0000.0001)     ;
(PID.TID 0000.0001) calc_wVelocity = /* vertical velocity calculation on/off flag */
(PID.TID 0000.0001)                   F
(PID.TID 0000.0001)     ;
(PID.TID 0000.0001) momStepping =  /* Momentum equation on/off flag */
(PID.TID 0000.0001)                   F
(PID.TID 0000.0001)     ;
(PID.TID 0000.0001) vectorInvariantMomentum= /* Vector-Invariant Momentum on/off */
(PID.TID 0000.0001)                   F
(PID.TID 0000.0001)     ;
(PID.TID 0000.0001) momAdvection =  /* Momentum advection on/off flag */
(PID.TID 0000.0001)                   F
(PID.TID 0000.0001)     ;
(PID.TID 0000.0001) momViscosity =  /* Momentum viscosity on/off flag */
(PID.TID 0000.0001)                   F
(PID.TID 0000.0001)     ;
(PID.TID 0000.0001) momImplVertAdv= /* Momentum implicit vert. advection on/off*/
(PID.TID 0000.0001)                   F
(PID.TID 0000.0001)     ;
(PID.TID 0000.0001) implicitViscosity = /* Implicit viscosity on/off flag */
(PID.TID 0000.0001)                   F
(PID.TID 0000.0001)     ;
(PID.TID 0000.0001) metricTerms =  /* metric-Terms on/off flag */
(PID.TID 0000.0001)                   T
(PID.TID 0000.0001)     ;
(PID.TID 0000.0001) useNHMTerms = /* Non-Hydrostatic Metric-Terms on/off */
(PID.TID 0000.0001)                   F
(PID.TID 0000.0001)     ;
(PID.TID 0000.0001) selectCoriMap = /* Coriolis Map options (0,1,2,3)*/
(PID.TID 0000.0001)                       2
(PID.TID 0000.0001)     0= f-Plane ; 1= Beta-Plane ; 2= Spherical ; 3= read from file
(PID.TID 0000.0001)     ;
(PID.TID 0000.0001) use3dCoriolis = /* 3-D Coriolis on/off flag */
(PID.TID 0000.0001)                   F
(PID.TID 0000.0001)     ;
(PID.TID 0000.0001) useCoriolis =  /* Coriolis on/off flag */
(PID.TID 0000.0001)                   F
(PID.TID 0000.0001)     ;
(PID.TID 0000.0001) useCDscheme =  /* CD scheme on/off flag */
(PID.TID 0000.0001)                   F
(PID.TID 0000.0001)     ;
(PID.TID 0000.0001) useEnergyConservingCoriolis= /* Flx-Form Coriolis scheme flag */
(PID.TID 0000.0001)                   F
(PID.TID 0000.0001)     ;
(PID.TID 0000.0001) useJamartWetPoints= /* Coriolis WetPoints method flag */
(PID.TID 0000.0001)                   F
(PID.TID 0000.0001)     ;
(PID.TID 0000.0001) useJamartMomAdv= /* V.I Non-linear terms Jamart flag */
(PID.TID 0000.0001)                   F
(PID.TID 0000.0001)     ;
(PID.TID 0000.0001) useAbsVorticity= /* V.I Works with f+zeta in Coriolis */
(PID.TID 0000.0001)                   F
(PID.TID 0000.0001)     ;
(PID.TID 0000.0001) selectVortScheme= /* V.I Scheme selector for Vorticity-Term */
(PID.TID 0000.0001)               123456789
(PID.TID 0000.0001)    = 0 : enstrophy (Shallow-Water Eq.) conserving scheme by Sadourny, JAS 75
(PID.TID 0000.0001)    = 1 : same as 0 with modified hFac
(PID.TID 0000.0001)    = 2 : energy conserving scheme (used by Sadourny in JAS 75 paper)
(PID.TID 0000.0001)    = 3 : energy (general) and enstrophy (2D, nonDiv.) conserving scheme
(PID.TID 0000.0001)          from Sadourny (Burridge & Haseler, ECMWF Rep.4, 1977)
(PID.TID 0000.0001)     ;
(PID.TID 0000.0001) upwindVorticity= /* V.I Upwind bias vorticity flag */
(PID.TID 0000.0001)                   F
(PID.TID 0000.0001)     ;
(PID.TID 0000.0001) highOrderVorticity= /* V.I High order vort. advect. flag */
(PID.TID 0000.0001)                   F
(PID.TID 0000.0001)     ;
(PID.TID 0000.0001) upwindShear= /* V.I Upwind vertical Shear advection flag */
(PID.TID 0000.0001)                   F
(PID.TID 0000.0001)     ;
(PID.TID 0000.0001) selectKEscheme= /* V.I Kinetic Energy scheme selector */
(PID.TID 0000.0001)                       0
(PID.TID 0000.0001)     ;
(PID.TID 0000.0001) momForcing =  /* Momentum forcing on/off flag */
(PID.TID 0000.0001)                   F
(PID.TID 0000.0001)     ;
(PID.TID 0000.0001) momPressureForcing =  /* Momentum pressure term on/off flag */
(PID.TID 0000.0001)                   F
(PID.TID 0000.0001)     ;
(PID.TID 0000.0001) implicitIntGravWave= /* Implicit Internal Gravity Wave flag */
(PID.TID 0000.0001)                   F
(PID.TID 0000.0001)     ;
(PID.TID 0000.0001) staggerTimeStep =    /* Stagger time stepping on/off flag */
(PID.TID 0000.0001)                   F
(PID.TID 0000.0001)     ;
(PID.TID 0000.0001) doResetHFactors = /* reset thickness factors @ each time-step */
(PID.TID 0000.0001)                   F
(PID.TID 0000.0001)     ;
(PID.TID 0000.0001) multiDimAdvection =  /* enable/disable Multi-Dim Advection */
(PID.TID 0000.0001)                   T
(PID.TID 0000.0001)     ;
(PID.TID 0000.0001) useMultiDimAdvec =   /* Multi-Dim Advection is/is-not used */
(PID.TID 0000.0001)                   T
(PID.TID 0000.0001)     ;
(PID.TID 0000.0001) implicitDiffusion = /* Implicit Diffusion on/off flag */
(PID.TID 0000.0001)                   T
(PID.TID 0000.0001)     ;
(PID.TID 0000.0001) tempStepping =  /* Temperature equation on/off flag */
(PID.TID 0000.0001)                   T
(PID.TID 0000.0001)     ;
(PID.TID 0000.0001) tempAdvection = /* Temperature advection on/off flag */
(PID.TID 0000.0001)                   T
(PID.TID 0000.0001)     ;
(PID.TID 0000.0001) tempImplVertAdv = /* Temp. implicit vert. advection on/off */
(PID.TID 0000.0001)                   F
(PID.TID 0000.0001)     ;
(PID.TID 0000.0001) tempForcing  =  /* Temperature forcing on/off flag */
(PID.TID 0000.0001)                   T
(PID.TID 0000.0001)     ;
(PID.TID 0000.0001) doThetaClimRelax = /* apply SST relaxation on/off flag */
(PID.TID 0000.0001)                   T
(PID.TID 0000.0001)     ;
(PID.TID 0000.0001) tempIsActiveTr = /* Temp. is a dynamically Active Tracer */
(PID.TID 0000.0001)                   F
(PID.TID 0000.0001)     ;
(PID.TID 0000.0001) saltStepping =  /* Salinity equation on/off flag */
(PID.TID 0000.0001)                   F
(PID.TID 0000.0001)     ;
(PID.TID 0000.0001) saltAdvection = /* Salinity advection on/off flag */
(PID.TID 0000.0001)                   F
(PID.TID 0000.0001)     ;
(PID.TID 0000.0001) saltImplVertAdv = /* Sali. implicit vert. advection on/off */
(PID.TID 0000.0001)                   F
(PID.TID 0000.0001)     ;
(PID.TID 0000.0001) saltForcing  =  /* Salinity forcing on/off flag */
(PID.TID 0000.0001)                   F
(PID.TID 0000.0001)     ;
(PID.TID 0000.0001) doSaltClimRelax = /* apply SSS relaxation on/off flag */
(PID.TID 0000.0001)                   F
(PID.TID 0000.0001)     ;
(PID.TID 0000.0001) saltIsActiveTr = /* Salt  is a dynamically Active Tracer */
(PID.TID 0000.0001)                   F
(PID.TID 0000.0001)     ;
(PID.TID 0000.0001)  readBinaryPrec = /* Precision used for reading binary files */
(PID.TID 0000.0001)                      32
(PID.TID 0000.0001)     ;
(PID.TID 0000.0001) writeBinaryPrec = /* Precision used for writing binary files */
(PID.TID 0000.0001)                      64
(PID.TID 0000.0001)     ;
(PID.TID 0000.0001)  globalFiles = /* write "global" (=not per tile) files */
(PID.TID 0000.0001)                   F
(PID.TID 0000.0001)     ;
(PID.TID 0000.0001)  useSingleCpuIO = /* only master MPI process does I/O */
(PID.TID 0000.0001)                   T
(PID.TID 0000.0001)     ;
(PID.TID 0000.0001) /* debLev[*]  : level of debug & auxiliary message printing */
(PID.TID 0000.0001) debLevZero =  0 ; /* level of disabled aux. msg printing */
(PID.TID 0000.0001)    debLevA =  1 ; /* level of minimum  aux. msg printing */
(PID.TID 0000.0001)    debLevB =  2 ; /* level of low aux. print (report read-file opening)*/
(PID.TID 0000.0001)    debLevC =  3 ; /* level of moderate debug prt (most pkgs debug msg) */
(PID.TID 0000.0001)    debLevD =  4 ; /* level of enhanced debug prt (add DEBUG_STATS prt) */
(PID.TID 0000.0001)    debLevE =  5 ; /* level of extensive debug printing */
(PID.TID 0000.0001) debugLevel =  /* select debug printing level */
(PID.TID 0000.0001)                       2
(PID.TID 0000.0001)     ;
(PID.TID 0000.0001) //
(PID.TID 0000.0001) // Elliptic solver(s) paramters ( PARM02 in namelist )
(PID.TID 0000.0001) //
(PID.TID 0000.0001) cg2dMaxIters =   /* Upper limit on 2d con. grad iterations  */
(PID.TID 0000.0001)                     300
(PID.TID 0000.0001)     ;
(PID.TID 0000.0001) cg2dChkResFreq =   /* 2d con. grad convergence test frequency */
(PID.TID 0000.0001)                       1
(PID.TID 0000.0001)     ;
(PID.TID 0000.0001) cg2dUseMinResSol= /* use cg2d last-iter(=0) / min-resid.(=1) solution */
(PID.TID 0000.0001)                       0
(PID.TID 0000.0001)     ;
(PID.TID 0000.0001) cg2dTargetResidual =   /* 2d con. grad target residual  */
(PID.TID 0000.0001)                 1.000000000000000E-07
(PID.TID 0000.0001)     ;
(PID.TID 0000.0001) cg2dTargetResWunit =   /* CG2d target residual [W units] */
(PID.TID 0000.0001)                -1.000000000000000E+00
(PID.TID 0000.0001)     ;
(PID.TID 0000.0001) cg2dPreCondFreq =   /* Freq. for updating cg2d preconditioner */
(PID.TID 0000.0001)                       1
(PID.TID 0000.0001)     ;
(PID.TID 0000.0001) useSRCGSolver =  /* use single reduction CG solver(s) */
(PID.TID 0000.0001)                   F
(PID.TID 0000.0001)     ;
(PID.TID 0000.0001) printResidualFreq = /* Freq. for printing CG residual */
(PID.TID 0000.0001)                       0
(PID.TID 0000.0001)     ;
(PID.TID 0000.0001) //
(PID.TID 0000.0001) // Time stepping paramters ( PARM03 in namelist )
(PID.TID 0000.0001) //
(PID.TID 0000.0001) deltaTMom =   /* Momentum equation timestep ( s ) */
(PID.TID 0000.0001)                 3.600000000000000E+03
(PID.TID 0000.0001)     ;
(PID.TID 0000.0001) deltaTFreeSurf = /* FreeSurface equation timestep ( s ) */
(PID.TID 0000.0001)                 3.600000000000000E+03
(PID.TID 0000.0001)     ;
(PID.TID 0000.0001) dTtracerLev =  /* Tracer equation timestep ( s ) */
(PID.TID 0000.0001)    35 @  3.600000000000000E+03              /* K =  1: 35 */
(PID.TID 0000.0001)     ;
(PID.TID 0000.0001) deltaTClock  =   /* Model clock timestep ( s ) */
(PID.TID 0000.0001)                 3.600000000000000E+03
(PID.TID 0000.0001)     ;
(PID.TID 0000.0001) cAdjFreq =   /* Convective adjustment interval ( s ) */
(PID.TID 0000.0001)                 3.600000000000000E+03
(PID.TID 0000.0001)     ;
(PID.TID 0000.0001) momForcingOutAB = /* =1: take Momentum Forcing out of Adams-Bash. stepping */
(PID.TID 0000.0001)                       0
(PID.TID 0000.0001)     ;
(PID.TID 0000.0001) tracForcingOutAB = /* =1: take T,S,pTr Forcing out of Adams-Bash. stepping */
(PID.TID 0000.0001)                       0
(PID.TID 0000.0001)     ;
(PID.TID 0000.0001) momDissip_In_AB = /* put Dissipation Tendency in Adams-Bash. stepping */
(PID.TID 0000.0001)                   T
(PID.TID 0000.0001)     ;
(PID.TID 0000.0001) doAB_onGtGs = /* apply AB on Tendencies (rather than on T,S)*/
(PID.TID 0000.0001)                   T
(PID.TID 0000.0001)     ;
(PID.TID 0000.0001) abEps =   /* Adams-Bashforth-2 stabilizing weight */
(PID.TID 0000.0001)                 1.000000000000000E-01
(PID.TID 0000.0001)     ;
(PID.TID 0000.0001) pickupStrictlyMatch= /* stop if pickup do not strictly match */
(PID.TID 0000.0001)                   T
(PID.TID 0000.0001)     ;
(PID.TID 0000.0001) nIter0   =   /* Run starting timestep number */
(PID.TID 0000.0001)                       0
(PID.TID 0000.0001)     ;
(PID.TID 0000.0001) nTimeSteps = /* Number of timesteps */
(PID.TID 0000.0001)                       4
(PID.TID 0000.0001)     ;
(PID.TID 0000.0001) nEndIter =   /* Run ending timestep number */
(PID.TID 0000.0001)                       4
(PID.TID 0000.0001)     ;
(PID.TID 0000.0001) baseTime =   /* Model base time ( s ) */
(PID.TID 0000.0001)                 0.000000000000000E+00
(PID.TID 0000.0001)     ;
(PID.TID 0000.0001) startTime =  /* Run start time ( s ) */
(PID.TID 0000.0001)                 0.000000000000000E+00
(PID.TID 0000.0001)     ;
(PID.TID 0000.0001) endTime  =   /* Integration ending time ( s ) */
(PID.TID 0000.0001)                 1.440000000000000E+04
(PID.TID 0000.0001)     ;
(PID.TID 0000.0001) pChkPtFreq = /* Permanent restart/pickup file interval ( s ) */
(PID.TID 0000.0001)                 3.110400000000000E+07
(PID.TID 0000.0001)     ;
(PID.TID 0000.0001) chkPtFreq  = /* Rolling restart/pickup file interval ( s ) */
(PID.TID 0000.0001)                 3.110400000000000E+07
(PID.TID 0000.0001)     ;
(PID.TID 0000.0001) pickup_write_mdsio =   /* Model IO flag. */
(PID.TID 0000.0001)                   T
(PID.TID 0000.0001)     ;
(PID.TID 0000.0001) pickup_read_mdsio =   /* Model IO flag. */
(PID.TID 0000.0001)                   T
(PID.TID 0000.0001)     ;
(PID.TID 0000.0001) pickup_write_mnc =   /* Model IO flag. */
(PID.TID 0000.0001)                   F
(PID.TID 0000.0001)     ;
(PID.TID 0000.0001) pickup_read_mnc =   /* Model IO flag. */
(PID.TID 0000.0001)                   F
(PID.TID 0000.0001)     ;
(PID.TID 0000.0001) pickup_write_immed =   /* Model IO flag. */
(PID.TID 0000.0001)                   F
(PID.TID 0000.0001)     ;
(PID.TID 0000.0001) writePickupAtEnd =   /* Model IO flag. */
(PID.TID 0000.0001)                   T
(PID.TID 0000.0001)     ;
(PID.TID 0000.0001) dumpFreq =   /* Model state write out interval ( s ). */
(PID.TID 0000.0001)                 3.600000000000000E+03
(PID.TID 0000.0001)     ;
(PID.TID 0000.0001) dumpInitAndLast= /* write out Initial & Last iter. model state */
(PID.TID 0000.0001)                   T
(PID.TID 0000.0001)     ;
(PID.TID 0000.0001) snapshot_mdsio =   /* Model IO flag. */
(PID.TID 0000.0001)                   F
(PID.TID 0000.0001)     ;
(PID.TID 0000.0001) snapshot_mnc =   /* Model IO flag. */
(PID.TID 0000.0001)                   T
(PID.TID 0000.0001)     ;
(PID.TID 0000.0001) monitorFreq =   /* Monitor output interval ( s ). */
(PID.TID 0000.0001)                 1.000000000000000E+00
(PID.TID 0000.0001)     ;
(PID.TID 0000.0001) monitorSelect = /* select group of variables to monitor */
(PID.TID 0000.0001)                       3
(PID.TID 0000.0001)     ;
(PID.TID 0000.0001) monitor_stdio =   /* Model IO flag. */
(PID.TID 0000.0001)                   T
(PID.TID 0000.0001)     ;
(PID.TID 0000.0001) monitor_mnc =   /* Model IO flag. */
(PID.TID 0000.0001)                   F
(PID.TID 0000.0001)     ;
(PID.TID 0000.0001) externForcingPeriod =   /* forcing period (s) */
(PID.TID 0000.0001)                 2.592000000000000E+06
(PID.TID 0000.0001)     ;
(PID.TID 0000.0001) externForcingCycle =   /* period of the cyle (s). */
(PID.TID 0000.0001)                 3.110400000000000E+07
(PID.TID 0000.0001)     ;
(PID.TID 0000.0001) tauThetaClimRelax =   /* relaxation time scale (s) */
(PID.TID 0000.0001)                 2.592000000000000E+05
(PID.TID 0000.0001)     ;
(PID.TID 0000.0001) tauSaltClimRelax =   /* relaxation time scale (s) */
(PID.TID 0000.0001)                 0.000000000000000E+00
(PID.TID 0000.0001)     ;
(PID.TID 0000.0001) latBandClimRelax =   /* max. Lat. where relaxation */
(PID.TID 0000.0001)                 1.800000000000000E+02
(PID.TID 0000.0001)     ;
(PID.TID 0000.0001) //
(PID.TID 0000.0001) // Gridding paramters ( PARM04 in namelist )
(PID.TID 0000.0001) //
(PID.TID 0000.0001) usingCartesianGrid = /* Cartesian coordinates flag ( True/False ) */
(PID.TID 0000.0001)                   F
(PID.TID 0000.0001)     ;
(PID.TID 0000.0001) usingCylindricalGrid = /* Cylindrical coordinates flag ( True/False ) */
(PID.TID 0000.0001)                   F
(PID.TID 0000.0001)     ;
(PID.TID 0000.0001) usingSphericalPolarGrid = /* Spherical coordinates flag ( True/False ) */
(PID.TID 0000.0001)                   T
(PID.TID 0000.0001)     ;
(PID.TID 0000.0001) usingCurvilinearGrid = /* Curvilinear coordinates flag ( True/False ) */
(PID.TID 0000.0001)                   F
(PID.TID 0000.0001)     ;
(PID.TID 0000.0001) selectSigmaCoord = /* Hybrid-Sigma Vert. Coordinate option */
(PID.TID 0000.0001)                       0
(PID.TID 0000.0001)     ;
(PID.TID 0000.0001) Ro_SeaLevel = /* r(1) ( units of r ==  m ) */
(PID.TID 0000.0001)                 0.000000000000000E+00
(PID.TID 0000.0001)     ;
(PID.TID 0000.0001) rSigmaBnd = /* r/sigma transition ( units of r ==  m ) */
(PID.TID 0000.0001)                 1.234567000000000E+05
(PID.TID 0000.0001)     ;
(PID.TID 0000.0001) rkSign =   /* index orientation relative to vertical coordinate */
(PID.TID 0000.0001)                -1.000000000000000E+00
(PID.TID 0000.0001)     ;
(PID.TID 0000.0001) gravitySign = /* gravity orientation relative to vertical coordinate */
(PID.TID 0000.0001)                -1.000000000000000E+00
(PID.TID 0000.0001)     ;
(PID.TID 0000.0001) mass2rUnit = /* convert mass per unit area [kg/m2] to r-units [m] */
(PID.TID 0000.0001)                 1.000200040008002E-03
(PID.TID 0000.0001)     ;
(PID.TID 0000.0001) rUnit2mass = /* convert r-units [m] to mass per unit area [kg/m2] */
(PID.TID 0000.0001)                 9.998000000000000E+02
(PID.TID 0000.0001)     ;
(PID.TID 0000.0001) drC =   /* C spacing ( units of r ) */
(PID.TID 0000.0001)                 5.000000000000000E+00,      /* K =  1 */
(PID.TID 0000.0001)    13 @  1.000000000000000E+01,             /* K =  2: 14 */
(PID.TID 0000.0001)                 1.250000000000000E+01,      /* K = 15 */
(PID.TID 0000.0001)     4 @  1.500000000000000E+01,             /* K = 16: 19 */
(PID.TID 0000.0001)                 1.750000000000000E+01,      /* K = 20 */
(PID.TID 0000.0001)     3 @  2.000000000000000E+01,             /* K = 21: 23 */
(PID.TID 0000.0001)                 3.500000000000000E+01,      /* K = 24 */
(PID.TID 0000.0001)                 5.000000000000000E+01,      /* K = 25 */
(PID.TID 0000.0001)                 7.500000000000000E+01,      /* K = 26 */
(PID.TID 0000.0001)                 1.250000000000000E+02,      /* K = 27 */
(PID.TID 0000.0001)                 1.500000000000000E+02,      /* K = 28 */
(PID.TID 0000.0001)                 1.750000000000000E+02,      /* K = 29 */
(PID.TID 0000.0001)                 2.500000000000000E+02,      /* K = 30 */
(PID.TID 0000.0001)                 3.500000000000000E+02,      /* K = 31 */
(PID.TID 0000.0001)     2 @  4.000000000000000E+02,             /* K = 32: 33 */
(PID.TID 0000.0001)                 4.500000000000000E+02,      /* K = 34 */
(PID.TID 0000.0001)                 5.000000000000000E+02       /* K = 35 */
(PID.TID 0000.0001)     ;
(PID.TID 0000.0001) drF =   /* W spacing ( units of r ) */
(PID.TID 0000.0001)    14 @  1.000000000000000E+01,             /* K =  1: 14 */
(PID.TID 0000.0001)     5 @  1.500000000000000E+01,             /* K = 15: 19 */
(PID.TID 0000.0001)     4 @  2.000000000000000E+01,             /* K = 20: 23 */
(PID.TID 0000.0001)     2 @  5.000000000000000E+01,             /* K = 24: 25 */
(PID.TID 0000.0001)                 1.000000000000000E+02,      /* K = 26 */
(PID.TID 0000.0001)     2 @  1.500000000000000E+02,             /* K = 27: 28 */
(PID.TID 0000.0001)                 2.000000000000000E+02,      /* K = 29 */
(PID.TID 0000.0001)                 3.000000000000000E+02,      /* K = 30 */
(PID.TID 0000.0001)     3 @  4.000000000000000E+02,             /* K = 31: 33 */
(PID.TID 0000.0001)     2 @  5.000000000000000E+02              /* K = 34: 35 */
(PID.TID 0000.0001)     ;
(PID.TID 0000.0001) delX = /* U spacing ( m - cartesian, degrees - spherical ) */
(PID.TID 0000.0001)                 1.000000000000000E+00       /* I =  1 */
(PID.TID 0000.0001)     ;
(PID.TID 0000.0001) delY = /* V spacing ( m - cartesian, degrees - spherical ) */
(PID.TID 0000.0001)                 1.000000000000000E+00       /* J =  1 */
(PID.TID 0000.0001)     ;
(PID.TID 0000.0001) xgOrigin = /* X-axis origin of West  edge (cartesian: m, lat-lon: deg) */
(PID.TID 0000.0001)                 3.350000000000000E+02
(PID.TID 0000.0001)     ;
(PID.TID 0000.0001) ygOrigin = /* Y-axis origin of South edge (cartesian: m, lat-lon: deg) */
(PID.TID 0000.0001)                -1.800000000000000E+01
(PID.TID 0000.0001)     ;
(PID.TID 0000.0001) rSphere =  /* Radius ( ignored - cartesian, m - spherical ) */
(PID.TID 0000.0001)                 6.370000000000000E+06
(PID.TID 0000.0001)     ;
(PID.TID 0000.0001) deepAtmosphere = /* Deep/Shallow Atmosphere flag (True/False) */
(PID.TID 0000.0001)                   F
(PID.TID 0000.0001)     ;
(PID.TID 0000.0001) xC =  /* xC(:,1,:,1) : P-point X coord ( deg. or m if cartesian) */
(PID.TID 0000.0001)                 3.355000000000000E+02       /* I =  1 */
(PID.TID 0000.0001)     ;
(PID.TID 0000.0001) yC =  /* yC(1,:,1,:) : P-point Y coord ( deg. or m if cartesian) */
(PID.TID 0000.0001)                -1.750000000000000E+01       /* J =  1 */
(PID.TID 0000.0001)     ;
(PID.TID 0000.0001) rcoord = /* P-point R coordinate (  units of r ) */
(PID.TID 0000.0001)                -5.000000000000000E+00,      /* K =  1 */
(PID.TID 0000.0001)                -1.500000000000000E+01,      /* K =  2 */
(PID.TID 0000.0001)                -2.500000000000000E+01,      /* K =  3 */
(PID.TID 0000.0001)                -3.500000000000000E+01,      /* K =  4 */
(PID.TID 0000.0001)                -4.500000000000000E+01,      /* K =  5 */
(PID.TID 0000.0001)                -5.500000000000000E+01,      /* K =  6 */
(PID.TID 0000.0001)                -6.500000000000000E+01,      /* K =  7 */
(PID.TID 0000.0001)                -7.500000000000000E+01,      /* K =  8 */
(PID.TID 0000.0001)                -8.500000000000000E+01,      /* K =  9 */
(PID.TID 0000.0001)                -9.500000000000000E+01,      /* K = 10 */
(PID.TID 0000.0001)                -1.050000000000000E+02,      /* K = 11 */
(PID.TID 0000.0001)                -1.150000000000000E+02,      /* K = 12 */
(PID.TID 0000.0001)                -1.250000000000000E+02,      /* K = 13 */
(PID.TID 0000.0001)                -1.350000000000000E+02,      /* K = 14 */
(PID.TID 0000.0001)                -1.475000000000000E+02,      /* K = 15 */
(PID.TID 0000.0001)                -1.625000000000000E+02,      /* K = 16 */
(PID.TID 0000.0001)                -1.775000000000000E+02,      /* K = 17 */
(PID.TID 0000.0001)                -1.925000000000000E+02,      /* K = 18 */
(PID.TID 0000.0001)                -2.075000000000000E+02,      /* K = 19 */
(PID.TID 0000.0001)                -2.250000000000000E+02,      /* K = 20 */
(PID.TID 0000.0001)                -2.450000000000000E+02,      /* K = 21 */
(PID.TID 0000.0001)                -2.650000000000000E+02,      /* K = 22 */
(PID.TID 0000.0001)                -2.850000000000000E+02,      /* K = 23 */
(PID.TID 0000.0001)                -3.200000000000000E+02,      /* K = 24 */
(PID.TID 0000.0001)                -3.700000000000000E+02,      /* K = 25 */
(PID.TID 0000.0001)                -4.450000000000000E+02,      /* K = 26 */
(PID.TID 0000.0001)                -5.700000000000000E+02,      /* K = 27 */
(PID.TID 0000.0001)                -7.200000000000000E+02,      /* K = 28 */
(PID.TID 0000.0001)                -8.950000000000000E+02,      /* K = 29 */
(PID.TID 0000.0001)                -1.145000000000000E+03,      /* K = 30 */
(PID.TID 0000.0001)                -1.495000000000000E+03,      /* K = 31 */
(PID.TID 0000.0001)                -1.895000000000000E+03,      /* K = 32 */
(PID.TID 0000.0001)                -2.295000000000000E+03,      /* K = 33 */
(PID.TID 0000.0001)                -2.745000000000000E+03,      /* K = 34 */
(PID.TID 0000.0001)                -3.245000000000000E+03       /* K = 35 */
(PID.TID 0000.0001)     ;
(PID.TID 0000.0001) rF =   /* W-Interf. R coordinate (  units of r ) */
(PID.TID 0000.0001)                 0.000000000000000E+00,      /* K =  1 */
(PID.TID 0000.0001)                -1.000000000000000E+01,      /* K =  2 */
(PID.TID 0000.0001)                -2.000000000000000E+01,      /* K =  3 */
(PID.TID 0000.0001)                -3.000000000000000E+01,      /* K =  4 */
(PID.TID 0000.0001)                -4.000000000000000E+01,      /* K =  5 */
(PID.TID 0000.0001)                -5.000000000000000E+01,      /* K =  6 */
(PID.TID 0000.0001)                -6.000000000000000E+01,      /* K =  7 */
(PID.TID 0000.0001)                -7.000000000000000E+01,      /* K =  8 */
(PID.TID 0000.0001)                -8.000000000000000E+01,      /* K =  9 */
(PID.TID 0000.0001)                -9.000000000000000E+01,      /* K = 10 */
(PID.TID 0000.0001)                -1.000000000000000E+02,      /* K = 11 */
(PID.TID 0000.0001)                -1.100000000000000E+02,      /* K = 12 */
(PID.TID 0000.0001)                -1.200000000000000E+02,      /* K = 13 */
(PID.TID 0000.0001)                -1.300000000000000E+02,      /* K = 14 */
(PID.TID 0000.0001)                -1.400000000000000E+02,      /* K = 15 */
(PID.TID 0000.0001)                -1.550000000000000E+02,      /* K = 16 */
(PID.TID 0000.0001)                -1.700000000000000E+02,      /* K = 17 */
(PID.TID 0000.0001)                -1.850000000000000E+02,      /* K = 18 */
(PID.TID 0000.0001)                -2.000000000000000E+02,      /* K = 19 */
(PID.TID 0000.0001)                -2.150000000000000E+02,      /* K = 20 */
(PID.TID 0000.0001)                -2.350000000000000E+02,      /* K = 21 */
(PID.TID 0000.0001)                -2.550000000000000E+02,      /* K = 22 */
(PID.TID 0000.0001)                -2.750000000000000E+02,      /* K = 23 */
(PID.TID 0000.0001)                -2.950000000000000E+02,      /* K = 24 */
(PID.TID 0000.0001)                -3.450000000000000E+02,      /* K = 25 */
(PID.TID 0000.0001)                -3.950000000000000E+02,      /* K = 26 */
(PID.TID 0000.0001)                -4.950000000000000E+02,      /* K = 27 */
(PID.TID 0000.0001)                -6.450000000000000E+02,      /* K = 28 */
(PID.TID 0000.0001)                -7.950000000000000E+02,      /* K = 29 */
(PID.TID 0000.0001)                -9.950000000000000E+02,      /* K = 30 */
(PID.TID 0000.0001)                -1.295000000000000E+03,      /* K = 31 */
(PID.TID 0000.0001)                -1.695000000000000E+03,      /* K = 32 */
(PID.TID 0000.0001)                -2.095000000000000E+03,      /* K = 33 */
(PID.TID 0000.0001)                -2.495000000000000E+03,      /* K = 34 */
(PID.TID 0000.0001)                -2.995000000000000E+03,      /* K = 35 */
(PID.TID 0000.0001)                -3.495000000000000E+03       /* K = 36 */
(PID.TID 0000.0001)     ;
(PID.TID 0000.0001) deepFacC = /* deep-model grid factor @ cell-Center (-) */
(PID.TID 0000.0001)    35 @  1.000000000000000E+00              /* K =  1: 35 */
(PID.TID 0000.0001)     ;
(PID.TID 0000.0001) deepFacF = /* deep-model grid factor @ W-Interface (-) */
(PID.TID 0000.0001)    36 @  1.000000000000000E+00              /* K =  1: 36 */
(PID.TID 0000.0001)     ;
(PID.TID 0000.0001) rVel2wUnit = /* convert units: rVel -> wSpeed (=1 if z-coord)*/
(PID.TID 0000.0001)    36 @  1.000000000000000E+00              /* K =  1: 36 */
(PID.TID 0000.0001)     ;
(PID.TID 0000.0001) wUnit2rVel = /* convert units: wSpeed -> rVel (=1 if z-coord)*/
(PID.TID 0000.0001)    36 @  1.000000000000000E+00              /* K =  1: 36 */
(PID.TID 0000.0001)     ;
(PID.TID 0000.0001) dBdrRef = /* Vertical grad. of reference buoyancy [(m/s/r)^2] */
(PID.TID 0000.0001)                 0.000000000000000E+00,      /* K =  1 */
(PID.TID 0000.0001)                 1.232578190459821E-04,      /* K =  2 */
(PID.TID 0000.0001)                 3.063957957303617E-05,      /* K =  3 */
(PID.TID 0000.0001)                 1.521320422054373E-04,      /* K =  4 */
(PID.TID 0000.0001)                 3.021271930223580E-05,      /* K =  5 */
(PID.TID 0000.0001)                 1.499903428890670E-04,      /* K =  6 */
(PID.TID 0000.0001)                 1.186737265074332E-04,      /* K =  7 */
(PID.TID 0000.0001)                 1.466841384627423E-04,      /* K =  8 */
(PID.TID 0000.0001)                 8.712618931102987E-05,      /* K =  9 */
(PID.TID 0000.0001)                 1.151380441308261E-04,      /* K = 10 */
(PID.TID 0000.0001)                 5.712979717883684E-05,      /* K = 11 */
(PID.TID 0000.0001)                 8.515049872565506E-05,      /* K = 12 */
(PID.TID 0000.0001)                 8.448721842774896E-05,      /* K = 13 */
(PID.TID 0000.0001)                 1.116043428725511E-04,      /* K = 14 */
(PID.TID 0000.0001)                 1.102373809396796E-04,      /* K = 15 */
(PID.TID 0000.0001)                 1.798828639202717E-04,      /* K = 16 */
(PID.TID 0000.0001)                 1.918102676980872E-04,      /* K = 17 */
(PID.TID 0000.0001)                 1.853506120896664E-04,      /* K = 18 */
(PID.TID 0000.0001)                 1.787791674911888E-04,      /* K = 19 */
(PID.TID 0000.0001)                 9.455522998141848E-05,      /* K = 20 */
(PID.TID 0000.0001)                 1.259231836379978E-04,      /* K = 21 */
(PID.TID 0000.0001)                 9.923620256554768E-05,      /* K = 22 */
(PID.TID 0000.0001)                 8.531935398693722E-05,      /* K = 23 */
(PID.TID 0000.0001)                 4.137475825384700E-05,      /* K = 24 */
(PID.TID 0000.0001)                 5.930109718499171E-05,      /* K = 25 */
(PID.TID 0000.0001)                 3.689739454308316E-05,      /* K = 26 */
(PID.TID 0000.0001)                 3.215311288275425E-05,      /* K = 27 */
(PID.TID 0000.0001)                 2.340106578013931E-05,      /* K = 28 */
(PID.TID 0000.0001)                 8.957465806881803E-06,      /* K = 29 */
(PID.TID 0000.0001)                 2.029141226789735E-06,      /* K = 30 */
(PID.TID 0000.0001)                 0.000000000000000E+00,      /* K = 31 */
(PID.TID 0000.0001)                 1.052869956707729E-06,      /* K = 32 */
(PID.TID 0000.0001)                 1.465965950004292E-06,      /* K = 33 */
(PID.TID 0000.0001)                 6.817081889333135E-07,      /* K = 34 */
(PID.TID 0000.0001)                 6.544800624285541E-07       /* K = 35 */
(PID.TID 0000.0001)     ;
(PID.TID 0000.0001) rotateGrid = /* use rotated grid ( True/False ) */
(PID.TID 0000.0001)                   F
(PID.TID 0000.0001)     ;
(PID.TID 0000.0001) phiEuler = /* Euler angle, rotation about original z-coordinate [rad] */
(PID.TID 0000.0001)                 0.000000000000000E+00
(PID.TID 0000.0001)     ;
(PID.TID 0000.0001) thetaEuler = /* Euler angle, rotation about new x-coordinate [rad] */
(PID.TID 0000.0001)                 0.000000000000000E+00
(PID.TID 0000.0001)     ;
(PID.TID 0000.0001) psiEuler = /* Euler angle, rotation about new z-coordinate [rad] */
(PID.TID 0000.0001)                 0.000000000000000E+00
(PID.TID 0000.0001)     ;
(PID.TID 0000.0001) dxF =  /* dxF(:,1,:,1) ( units: m ) */
(PID.TID 0000.0001)                 1.060318408771987E+05       /* I =  1 */
(PID.TID 0000.0001)     ;
(PID.TID 0000.0001) dxF =  /* dxF(1,:,1,:) ( units: m ) */
(PID.TID 0000.0001)                 1.060318408771987E+05       /* J =  1 */
(PID.TID 0000.0001)     ;
(PID.TID 0000.0001) dyF =  /* dyF(:,1,:,1) ( units: m ) */
(PID.TID 0000.0001)                 1.111774733520388E+05       /* I =  1 */
(PID.TID 0000.0001)     ;
(PID.TID 0000.0001) dyF =  /* dyF(1,:,1,:) ( units: m ) */
(PID.TID 0000.0001)                 1.111774733520388E+05       /* J =  1 */
(PID.TID 0000.0001)     ;
(PID.TID 0000.0001) dxG =  /* dxG(:,1,:,1) ( units: m ) */
(PID.TID 0000.0001)                 1.057360604966873E+05       /* I =  1 */
(PID.TID 0000.0001)     ;
(PID.TID 0000.0001) dxG =  /* dxG(1,:,1,:) ( units: m ) */
(PID.TID 0000.0001)                 1.057360604966873E+05       /* J =  1 */
(PID.TID 0000.0001)     ;
(PID.TID 0000.0001) dyG =  /* dyG(:,1,:,1) ( units: m ) */
(PID.TID 0000.0001)                 1.111774733520388E+05       /* I =  1 */
(PID.TID 0000.0001)     ;
(PID.TID 0000.0001) dyG =  /* dyG(1,:,1,:) ( units: m ) */
(PID.TID 0000.0001)                 1.111774733520388E+05       /* J =  1 */
(PID.TID 0000.0001)     ;
(PID.TID 0000.0001) dxC =  /* dxC(:,1,:,1) ( units: m ) */
(PID.TID 0000.0001)                 1.060318408771987E+05       /* I =  1 */
(PID.TID 0000.0001)     ;
(PID.TID 0000.0001) dxC =  /* dxC(1,:,1,:) ( units: m ) */
(PID.TID 0000.0001)                 1.060318408771987E+05       /* J =  1 */
(PID.TID 0000.0001)     ;
(PID.TID 0000.0001) dyC =  /* dyC(:,1,:,1) ( units: m ) */
(PID.TID 0000.0001)                 1.111774733520388E+05       /* I =  1 */
(PID.TID 0000.0001)     ;
(PID.TID 0000.0001) dyC =  /* dyC(1,:,1,:) ( units: m ) */
(PID.TID 0000.0001)                 1.111774733520388E+05       /* J =  1 */
(PID.TID 0000.0001)     ;
(PID.TID 0000.0001) dxV =  /* dxV(:,1,:,1) ( units: m ) */
(PID.TID 0000.0001)                 1.057360604966873E+05       /* I =  1 */
(PID.TID 0000.0001)     ;
(PID.TID 0000.0001) dxV =  /* dxV(1,:,1,:) ( units: m ) */
(PID.TID 0000.0001)                 1.057360604966873E+05       /* J =  1 */
(PID.TID 0000.0001)     ;
(PID.TID 0000.0001) dyU =  /* dyU(:,1,:,1) ( units: m ) */
(PID.TID 0000.0001)                 1.111774733520388E+05       /* I =  1 */
(PID.TID 0000.0001)     ;
(PID.TID 0000.0001) dyU =  /* dyU(1,:,1,:) ( units: m ) */
(PID.TID 0000.0001)                 1.111774733520388E+05       /* J =  1 */
(PID.TID 0000.0001)     ;
(PID.TID 0000.0001) rA  =  /* rA (:,1,:,1) ( units: m^2 ) */
(PID.TID 0000.0001)                 1.178820254176956E+10       /* I =  1 */
(PID.TID 0000.0001)     ;
(PID.TID 0000.0001) rA  =  /* rA (1,:,1,:) ( units: m^2 ) */
(PID.TID 0000.0001)                 1.178820254176956E+10       /* J =  1 */
(PID.TID 0000.0001)     ;
(PID.TID 0000.0001) rAw =  /* rAw(:,1,:,1) ( units: m^2 ) */
(PID.TID 0000.0001)                 1.178820254176956E+10       /* I =  1 */
(PID.TID 0000.0001)     ;
(PID.TID 0000.0001) rAw =  /* rAw(1,:,1,:) ( units: m^2 ) */
(PID.TID 0000.0001)                 1.178820254176956E+10       /* J =  1 */
(PID.TID 0000.0001)     ;
(PID.TID 0000.0001) rAs =  /* rAs(:,1,:,1) ( units: m^2 ) */
(PID.TID 0000.0001)                 1.175531884377377E+10       /* I =  1 */
(PID.TID 0000.0001)     ;
(PID.TID 0000.0001) rAs =  /* rAs(1,:,1,:) ( units: m^2 ) */
(PID.TID 0000.0001)                 1.175531884377377E+10       /* J =  1 */
(PID.TID 0000.0001)     ;
(PID.TID 0000.0001) globalArea = /* Integrated horizontal Area (m^2) */
(PID.TID 0000.0001)                 1.178820254176956E+10
(PID.TID 0000.0001)     ;
(PID.TID 0000.0001) // =======================================================
(PID.TID 0000.0001) // End of Model config. summary
(PID.TID 0000.0001) // =======================================================
(PID.TID 0000.0001) 
(PID.TID 0000.0001) == Packages configuration : Check & print summary ==
(PID.TID 0000.0001) 
(PID.TID 0000.0001) PTRACERS_CHECK: #define ALLOW_PTRACERS
(PID.TID 0000.0001) PTRACERS_CHECK: updated GAD_OlMinSize=  2  0  1
(PID.TID 0000.0001) // ===================================
(PID.TID 0000.0001) // PTRACERS parameters
(PID.TID 0000.0001) // ===================================
(PID.TID 0000.0001) PTRACERS_numInUse = /* number of tracers */
(PID.TID 0000.0001)                      97
(PID.TID 0000.0001)     ;
(PID.TID 0000.0001) PTRACERS_Iter0 = /* timestep number when tracers are initialized */
(PID.TID 0000.0001)                       0
(PID.TID 0000.0001)     ;
(PID.TID 0000.0001) PTRACERS_startAllTrc =/* all tracers start @ startTime */
(PID.TID 0000.0001)                   T
(PID.TID 0000.0001)     ;
(PID.TID 0000.0001) PTRACERS_addSrelax2EmP =/* add Salt relaxation to EmP */
(PID.TID 0000.0001)                   F
(PID.TID 0000.0001)     ;
(PID.TID 0000.0001) PTRACERS_dTLev =   /* Ptracer timestep ( s ) */
(PID.TID 0000.0001)    35 @  3.600000000000000E+03              /* K =  1: 35 */
(PID.TID 0000.0001)     ;
(PID.TID 0000.0001) PTRACERS_dumpFreq = /* Frequency^-1 for snapshot output (s) */
(PID.TID 0000.0001)                 3.600000000000000E+03
(PID.TID 0000.0001)     ;
(PID.TID 0000.0001) PTRACERS_taveFreq = /* Frequency^-1 for time-Aver. output (s) */
(PID.TID 0000.0001)                 2.592000000000000E+06
(PID.TID 0000.0001)     ;
(PID.TID 0000.0001) PTRACERS_useRecords = /* all tracers in 1 file */
(PID.TID 0000.0001)                   F
(PID.TID 0000.0001)     ;
(PID.TID 0000.0001) PTRACERS_timeave_mnc = /* use MNC for Tave output */
(PID.TID 0000.0001)                   T
(PID.TID 0000.0001)     ;
(PID.TID 0000.0001) PTRACERS_snapshot_mnc = /* use MNC for snapshot output */
(PID.TID 0000.0001)                   T
(PID.TID 0000.0001)     ;
(PID.TID 0000.0001) PTRACERS_pickup_write_mnc = /* use MNC for writing pickups */
(PID.TID 0000.0001)                   F
(PID.TID 0000.0001)     ;
(PID.TID 0000.0001) PTRACERS_pickup_read_mnc = /* use MNC for reading pickups */
(PID.TID 0000.0001)                   F
(PID.TID 0000.0001)     ;
(PID.TID 0000.0001)  -----------------------------------
(PID.TID 0000.0001)  tracer number :    1
(PID.TID 0000.0001) PTRACERS_names = /* Tracer short name */
(PID.TID 0000.0001)               'DIC'
(PID.TID 0000.0001)     ;
(PID.TID 0000.0001) PTRACERS_long_names = /* Tracer long name */
(PID.TID 0000.0001)               ''
(PID.TID 0000.0001)     ;
(PID.TID 0000.0001) PTRACERS_ioLabel = /* tracer IO Label */
(PID.TID 0000.0001)               '01'
(PID.TID 0000.0001)     ;
(PID.TID 0000.0001) PTRACERS_advScheme = /* Advection Scheme */
(PID.TID 0000.0001)                      33
(PID.TID 0000.0001)     ;
(PID.TID 0000.0001) PTRACERS_SOM_Advection = /* tracer uses SOM advection scheme */
(PID.TID 0000.0001)                   F
(PID.TID 0000.0001)     ;
(PID.TID 0000.0001) PTRACERS_ImplVertAdv = /* implicit vert. advection flag */
(PID.TID 0000.0001)                   F
(PID.TID 0000.0001)     ;
(PID.TID 0000.0001) PTRACERS_diffKh = /* Laplacian Diffusivity */
(PID.TID 0000.0001)                 0.000000000000000E+00
(PID.TID 0000.0001)     ;
(PID.TID 0000.0001) PTRACERS_diffK4 = /* Biharmonic Diffusivity */
(PID.TID 0000.0001)                 0.000000000000000E+00
(PID.TID 0000.0001)     ;
(PID.TID 0000.0001) PTRACERS_diffKrNr = /* Vertical Diffusivity */
(PID.TID 0000.0001)    35 @  1.000000000000000E-05              /* K =  1: 35 */
(PID.TID 0000.0001)     ;
(PID.TID 0000.0001) PTRACERS_useGMRedi = /* apply GM-Redi */
(PID.TID 0000.0001)                   F
(PID.TID 0000.0001)     ;
(PID.TID 0000.0001) PTRACERS_useDWNSLP = /* apply DOWN-SLOPE Flow */
(PID.TID 0000.0001)                   F
(PID.TID 0000.0001)     ;
(PID.TID 0000.0001) PTRACERS_useKPP = /* apply KPP scheme */
(PID.TID 0000.0001)                   F
(PID.TID 0000.0001)     ;
(PID.TID 0000.0001) PTRACERS_ref = /* Reference vertical profile */
(PID.TID 0000.0001)    35 @  2.000000000000000E+03              /* K =  1: 35 */
(PID.TID 0000.0001)     ;
(PID.TID 0000.0001) PTRACERS_EvPrRn =/* tracer conc. in Evap. & Rain */
(PID.TID 0000.0001)                 1.234567000000000E+05
(PID.TID 0000.0001)     ;
(PID.TID 0000.0001)  -----------------------------------
(PID.TID 0000.0001)  tracer number :    2
(PID.TID 0000.0001) PTRACERS_names = /* Tracer short name */
(PID.TID 0000.0001)               'NH4'
(PID.TID 0000.0001)     ;
(PID.TID 0000.0001) PTRACERS_long_names = /* Tracer long name */
(PID.TID 0000.0001)               ''
(PID.TID 0000.0001)     ;
(PID.TID 0000.0001) PTRACERS_ioLabel = /* tracer IO Label */
(PID.TID 0000.0001)               '02'
(PID.TID 0000.0001)     ;
(PID.TID 0000.0001) PTRACERS_advScheme = /* Advection Scheme */
(PID.TID 0000.0001)                      33
(PID.TID 0000.0001)     ;
(PID.TID 0000.0001) PTRACERS_SOM_Advection = /* tracer uses SOM advection scheme */
(PID.TID 0000.0001)                   F
(PID.TID 0000.0001)     ;
(PID.TID 0000.0001) PTRACERS_ImplVertAdv = /* implicit vert. advection flag */
(PID.TID 0000.0001)                   F
(PID.TID 0000.0001)     ;
(PID.TID 0000.0001) PTRACERS_diffKh = /* Laplacian Diffusivity */
(PID.TID 0000.0001)                 0.000000000000000E+00
(PID.TID 0000.0001)     ;
(PID.TID 0000.0001) PTRACERS_diffK4 = /* Biharmonic Diffusivity */
(PID.TID 0000.0001)                 0.000000000000000E+00
(PID.TID 0000.0001)     ;
(PID.TID 0000.0001) PTRACERS_diffKrNr = /* Vertical Diffusivity */
(PID.TID 0000.0001)    35 @  1.000000000000000E-05              /* K =  1: 35 */
(PID.TID 0000.0001)     ;
(PID.TID 0000.0001) PTRACERS_useGMRedi = /* apply GM-Redi */
(PID.TID 0000.0001)                   F
(PID.TID 0000.0001)     ;
(PID.TID 0000.0001) PTRACERS_useDWNSLP = /* apply DOWN-SLOPE Flow */
(PID.TID 0000.0001)                   F
(PID.TID 0000.0001)     ;
(PID.TID 0000.0001) PTRACERS_useKPP = /* apply KPP scheme */
(PID.TID 0000.0001)                   F
(PID.TID 0000.0001)     ;
(PID.TID 0000.0001) PTRACERS_ref = /* Reference vertical profile */
(PID.TID 0000.0001)    35 @  0.000000000000000E+00              /* K =  1: 35 */
(PID.TID 0000.0001)     ;
(PID.TID 0000.0001) PTRACERS_EvPrRn =/* tracer conc. in Evap. & Rain */
(PID.TID 0000.0001)                 1.234567000000000E+05
(PID.TID 0000.0001)     ;
(PID.TID 0000.0001)  -----------------------------------
(PID.TID 0000.0001)  tracer number :    3
(PID.TID 0000.0001) PTRACERS_names = /* Tracer short name */
(PID.TID 0000.0001)               'NO2'
(PID.TID 0000.0001)     ;
(PID.TID 0000.0001) PTRACERS_long_names = /* Tracer long name */
(PID.TID 0000.0001)               ''
(PID.TID 0000.0001)     ;
(PID.TID 0000.0001) PTRACERS_ioLabel = /* tracer IO Label */
(PID.TID 0000.0001)               '03'
(PID.TID 0000.0001)     ;
(PID.TID 0000.0001) PTRACERS_advScheme = /* Advection Scheme */
(PID.TID 0000.0001)                      33
(PID.TID 0000.0001)     ;
(PID.TID 0000.0001) PTRACERS_SOM_Advection = /* tracer uses SOM advection scheme */
(PID.TID 0000.0001)                   F
(PID.TID 0000.0001)     ;
(PID.TID 0000.0001) PTRACERS_ImplVertAdv = /* implicit vert. advection flag */
(PID.TID 0000.0001)                   F
(PID.TID 0000.0001)     ;
(PID.TID 0000.0001) PTRACERS_diffKh = /* Laplacian Diffusivity */
(PID.TID 0000.0001)                 0.000000000000000E+00
(PID.TID 0000.0001)     ;
(PID.TID 0000.0001) PTRACERS_diffK4 = /* Biharmonic Diffusivity */
(PID.TID 0000.0001)                 0.000000000000000E+00
(PID.TID 0000.0001)     ;
(PID.TID 0000.0001) PTRACERS_diffKrNr = /* Vertical Diffusivity */
(PID.TID 0000.0001)    35 @  1.000000000000000E-05              /* K =  1: 35 */
(PID.TID 0000.0001)     ;
(PID.TID 0000.0001) PTRACERS_useGMRedi = /* apply GM-Redi */
(PID.TID 0000.0001)                   F
(PID.TID 0000.0001)     ;
(PID.TID 0000.0001) PTRACERS_useDWNSLP = /* apply DOWN-SLOPE Flow */
(PID.TID 0000.0001)                   F
(PID.TID 0000.0001)     ;
(PID.TID 0000.0001) PTRACERS_useKPP = /* apply KPP scheme */
(PID.TID 0000.0001)                   F
(PID.TID 0000.0001)     ;
(PID.TID 0000.0001) PTRACERS_ref = /* Reference vertical profile */
(PID.TID 0000.0001)    35 @  0.000000000000000E+00              /* K =  1: 35 */
(PID.TID 0000.0001)     ;
(PID.TID 0000.0001) PTRACERS_EvPrRn =/* tracer conc. in Evap. & Rain */
(PID.TID 0000.0001)                 1.234567000000000E+05
(PID.TID 0000.0001)     ;
(PID.TID 0000.0001)  -----------------------------------
(PID.TID 0000.0001)  tracer number :    4
(PID.TID 0000.0001) PTRACERS_names = /* Tracer short name */
(PID.TID 0000.0001)               'NO3'
(PID.TID 0000.0001)     ;
(PID.TID 0000.0001) PTRACERS_long_names = /* Tracer long name */
(PID.TID 0000.0001)               ''
(PID.TID 0000.0001)     ;
(PID.TID 0000.0001) PTRACERS_ioLabel = /* tracer IO Label */
(PID.TID 0000.0001)               '04'
(PID.TID 0000.0001)     ;
(PID.TID 0000.0001) PTRACERS_advScheme = /* Advection Scheme */
(PID.TID 0000.0001)                      33
(PID.TID 0000.0001)     ;
(PID.TID 0000.0001) PTRACERS_SOM_Advection = /* tracer uses SOM advection scheme */
(PID.TID 0000.0001)                   F
(PID.TID 0000.0001)     ;
(PID.TID 0000.0001) PTRACERS_ImplVertAdv = /* implicit vert. advection flag */
(PID.TID 0000.0001)                   F
(PID.TID 0000.0001)     ;
(PID.TID 0000.0001) PTRACERS_diffKh = /* Laplacian Diffusivity */
(PID.TID 0000.0001)                 0.000000000000000E+00
(PID.TID 0000.0001)     ;
(PID.TID 0000.0001) PTRACERS_diffK4 = /* Biharmonic Diffusivity */
(PID.TID 0000.0001)                 0.000000000000000E+00
(PID.TID 0000.0001)     ;
(PID.TID 0000.0001) PTRACERS_diffKrNr = /* Vertical Diffusivity */
(PID.TID 0000.0001)    35 @  1.000000000000000E-05              /* K =  1: 35 */
(PID.TID 0000.0001)     ;
(PID.TID 0000.0001) PTRACERS_useGMRedi = /* apply GM-Redi */
(PID.TID 0000.0001)                   F
(PID.TID 0000.0001)     ;
(PID.TID 0000.0001) PTRACERS_useDWNSLP = /* apply DOWN-SLOPE Flow */
(PID.TID 0000.0001)                   F
(PID.TID 0000.0001)     ;
(PID.TID 0000.0001) PTRACERS_useKPP = /* apply KPP scheme */
(PID.TID 0000.0001)                   F
(PID.TID 0000.0001)     ;
(PID.TID 0000.0001) PTRACERS_ref = /* Reference vertical profile */
(PID.TID 0000.0001)    35 @  0.000000000000000E+00              /* K =  1: 35 */
(PID.TID 0000.0001)     ;
(PID.TID 0000.0001) PTRACERS_EvPrRn =/* tracer conc. in Evap. & Rain */
(PID.TID 0000.0001)                 1.234567000000000E+05
(PID.TID 0000.0001)     ;
(PID.TID 0000.0001)  -----------------------------------
(PID.TID 0000.0001)  tracer number :    5
(PID.TID 0000.0001) PTRACERS_names = /* Tracer short name */
(PID.TID 0000.0001)               'PO4'
(PID.TID 0000.0001)     ;
(PID.TID 0000.0001) PTRACERS_long_names = /* Tracer long name */
(PID.TID 0000.0001)               ''
(PID.TID 0000.0001)     ;
(PID.TID 0000.0001) PTRACERS_ioLabel = /* tracer IO Label */
(PID.TID 0000.0001)               '05'
(PID.TID 0000.0001)     ;
(PID.TID 0000.0001) PTRACERS_advScheme = /* Advection Scheme */
(PID.TID 0000.0001)                      33
(PID.TID 0000.0001)     ;
(PID.TID 0000.0001) PTRACERS_SOM_Advection = /* tracer uses SOM advection scheme */
(PID.TID 0000.0001)                   F
(PID.TID 0000.0001)     ;
(PID.TID 0000.0001) PTRACERS_ImplVertAdv = /* implicit vert. advection flag */
(PID.TID 0000.0001)                   F
(PID.TID 0000.0001)     ;
(PID.TID 0000.0001) PTRACERS_diffKh = /* Laplacian Diffusivity */
(PID.TID 0000.0001)                 0.000000000000000E+00
(PID.TID 0000.0001)     ;
(PID.TID 0000.0001) PTRACERS_diffK4 = /* Biharmonic Diffusivity */
(PID.TID 0000.0001)                 0.000000000000000E+00
(PID.TID 0000.0001)     ;
(PID.TID 0000.0001) PTRACERS_diffKrNr = /* Vertical Diffusivity */
(PID.TID 0000.0001)    35 @  1.000000000000000E-05              /* K =  1: 35 */
(PID.TID 0000.0001)     ;
(PID.TID 0000.0001) PTRACERS_useGMRedi = /* apply GM-Redi */
(PID.TID 0000.0001)                   F
(PID.TID 0000.0001)     ;
(PID.TID 0000.0001) PTRACERS_useDWNSLP = /* apply DOWN-SLOPE Flow */
(PID.TID 0000.0001)                   F
(PID.TID 0000.0001)     ;
(PID.TID 0000.0001) PTRACERS_useKPP = /* apply KPP scheme */
(PID.TID 0000.0001)                   F
(PID.TID 0000.0001)     ;
(PID.TID 0000.0001) PTRACERS_ref = /* Reference vertical profile */
(PID.TID 0000.0001)    35 @  0.000000000000000E+00              /* K =  1: 35 */
(PID.TID 0000.0001)     ;
(PID.TID 0000.0001) PTRACERS_EvPrRn =/* tracer conc. in Evap. & Rain */
(PID.TID 0000.0001)                 1.234567000000000E+05
(PID.TID 0000.0001)     ;
(PID.TID 0000.0001)  -----------------------------------
(PID.TID 0000.0001)  tracer number :    6
(PID.TID 0000.0001) PTRACERS_names = /* Tracer short name */
(PID.TID 0000.0001)               'SiO2'
(PID.TID 0000.0001)     ;
(PID.TID 0000.0001) PTRACERS_long_names = /* Tracer long name */
(PID.TID 0000.0001)               ''
(PID.TID 0000.0001)     ;
(PID.TID 0000.0001) PTRACERS_ioLabel = /* tracer IO Label */
(PID.TID 0000.0001)               '06'
(PID.TID 0000.0001)     ;
(PID.TID 0000.0001) PTRACERS_advScheme = /* Advection Scheme */
(PID.TID 0000.0001)                      33
(PID.TID 0000.0001)     ;
(PID.TID 0000.0001) PTRACERS_SOM_Advection = /* tracer uses SOM advection scheme */
(PID.TID 0000.0001)                   F
(PID.TID 0000.0001)     ;
(PID.TID 0000.0001) PTRACERS_ImplVertAdv = /* implicit vert. advection flag */
(PID.TID 0000.0001)                   F
(PID.TID 0000.0001)     ;
(PID.TID 0000.0001) PTRACERS_diffKh = /* Laplacian Diffusivity */
(PID.TID 0000.0001)                 0.000000000000000E+00
(PID.TID 0000.0001)     ;
(PID.TID 0000.0001) PTRACERS_diffK4 = /* Biharmonic Diffusivity */
(PID.TID 0000.0001)                 0.000000000000000E+00
(PID.TID 0000.0001)     ;
(PID.TID 0000.0001) PTRACERS_diffKrNr = /* Vertical Diffusivity */
(PID.TID 0000.0001)    35 @  1.000000000000000E-05              /* K =  1: 35 */
(PID.TID 0000.0001)     ;
(PID.TID 0000.0001) PTRACERS_useGMRedi = /* apply GM-Redi */
(PID.TID 0000.0001)                   F
(PID.TID 0000.0001)     ;
(PID.TID 0000.0001) PTRACERS_useDWNSLP = /* apply DOWN-SLOPE Flow */
(PID.TID 0000.0001)                   F
(PID.TID 0000.0001)     ;
(PID.TID 0000.0001) PTRACERS_useKPP = /* apply KPP scheme */
(PID.TID 0000.0001)                   F
(PID.TID 0000.0001)     ;
(PID.TID 0000.0001) PTRACERS_ref = /* Reference vertical profile */
(PID.TID 0000.0001)    35 @  0.000000000000000E+00              /* K =  1: 35 */
(PID.TID 0000.0001)     ;
(PID.TID 0000.0001) PTRACERS_EvPrRn =/* tracer conc. in Evap. & Rain */
(PID.TID 0000.0001)                 1.234567000000000E+05
(PID.TID 0000.0001)     ;
(PID.TID 0000.0001)  -----------------------------------
(PID.TID 0000.0001)  tracer number :    7
(PID.TID 0000.0001) PTRACERS_names = /* Tracer short name */
(PID.TID 0000.0001)               'FeT'
(PID.TID 0000.0001)     ;
(PID.TID 0000.0001) PTRACERS_long_names = /* Tracer long name */
(PID.TID 0000.0001)               ''
(PID.TID 0000.0001)     ;
(PID.TID 0000.0001) PTRACERS_ioLabel = /* tracer IO Label */
(PID.TID 0000.0001)               '07'
(PID.TID 0000.0001)     ;
(PID.TID 0000.0001) PTRACERS_advScheme = /* Advection Scheme */
(PID.TID 0000.0001)                      33
(PID.TID 0000.0001)     ;
(PID.TID 0000.0001) PTRACERS_SOM_Advection = /* tracer uses SOM advection scheme */
(PID.TID 0000.0001)                   F
(PID.TID 0000.0001)     ;
(PID.TID 0000.0001) PTRACERS_ImplVertAdv = /* implicit vert. advection flag */
(PID.TID 0000.0001)                   F
(PID.TID 0000.0001)     ;
(PID.TID 0000.0001) PTRACERS_diffKh = /* Laplacian Diffusivity */
(PID.TID 0000.0001)                 0.000000000000000E+00
(PID.TID 0000.0001)     ;
(PID.TID 0000.0001) PTRACERS_diffK4 = /* Biharmonic Diffusivity */
(PID.TID 0000.0001)                 0.000000000000000E+00
(PID.TID 0000.0001)     ;
(PID.TID 0000.0001) PTRACERS_diffKrNr = /* Vertical Diffusivity */
(PID.TID 0000.0001)    35 @  1.000000000000000E-05              /* K =  1: 35 */
(PID.TID 0000.0001)     ;
(PID.TID 0000.0001) PTRACERS_useGMRedi = /* apply GM-Redi */
(PID.TID 0000.0001)                   F
(PID.TID 0000.0001)     ;
(PID.TID 0000.0001) PTRACERS_useDWNSLP = /* apply DOWN-SLOPE Flow */
(PID.TID 0000.0001)                   F
(PID.TID 0000.0001)     ;
(PID.TID 0000.0001) PTRACERS_useKPP = /* apply KPP scheme */
(PID.TID 0000.0001)                   F
(PID.TID 0000.0001)     ;
(PID.TID 0000.0001) PTRACERS_ref = /* Reference vertical profile */
(PID.TID 0000.0001)    35 @  0.000000000000000E+00              /* K =  1: 35 */
(PID.TID 0000.0001)     ;
(PID.TID 0000.0001) PTRACERS_EvPrRn =/* tracer conc. in Evap. & Rain */
(PID.TID 0000.0001)                 1.234567000000000E+05
(PID.TID 0000.0001)     ;
(PID.TID 0000.0001)  -----------------------------------
(PID.TID 0000.0001)  tracer number :    8
(PID.TID 0000.0001) PTRACERS_names = /* Tracer short name */
(PID.TID 0000.0001)               'DOC'
(PID.TID 0000.0001)     ;
(PID.TID 0000.0001) PTRACERS_long_names = /* Tracer long name */
(PID.TID 0000.0001)               ''
(PID.TID 0000.0001)     ;
(PID.TID 0000.0001) PTRACERS_ioLabel = /* tracer IO Label */
(PID.TID 0000.0001)               '08'
(PID.TID 0000.0001)     ;
(PID.TID 0000.0001) PTRACERS_advScheme = /* Advection Scheme */
(PID.TID 0000.0001)                      33
(PID.TID 0000.0001)     ;
(PID.TID 0000.0001) PTRACERS_SOM_Advection = /* tracer uses SOM advection scheme */
(PID.TID 0000.0001)                   F
(PID.TID 0000.0001)     ;
(PID.TID 0000.0001) PTRACERS_ImplVertAdv = /* implicit vert. advection flag */
(PID.TID 0000.0001)                   F
(PID.TID 0000.0001)     ;
(PID.TID 0000.0001) PTRACERS_diffKh = /* Laplacian Diffusivity */
(PID.TID 0000.0001)                 0.000000000000000E+00
(PID.TID 0000.0001)     ;
(PID.TID 0000.0001) PTRACERS_diffK4 = /* Biharmonic Diffusivity */
(PID.TID 0000.0001)                 0.000000000000000E+00
(PID.TID 0000.0001)     ;
(PID.TID 0000.0001) PTRACERS_diffKrNr = /* Vertical Diffusivity */
(PID.TID 0000.0001)    35 @  1.000000000000000E-05              /* K =  1: 35 */
(PID.TID 0000.0001)     ;
(PID.TID 0000.0001) PTRACERS_useGMRedi = /* apply GM-Redi */
(PID.TID 0000.0001)                   F
(PID.TID 0000.0001)     ;
(PID.TID 0000.0001) PTRACERS_useDWNSLP = /* apply DOWN-SLOPE Flow */
(PID.TID 0000.0001)                   F
(PID.TID 0000.0001)     ;
(PID.TID 0000.0001) PTRACERS_useKPP = /* apply KPP scheme */
(PID.TID 0000.0001)                   F
(PID.TID 0000.0001)     ;
(PID.TID 0000.0001) PTRACERS_ref = /* Reference vertical profile */
(PID.TID 0000.0001)    35 @  0.000000000000000E+00              /* K =  1: 35 */
(PID.TID 0000.0001)     ;
(PID.TID 0000.0001) PTRACERS_EvPrRn =/* tracer conc. in Evap. & Rain */
(PID.TID 0000.0001)                 1.234567000000000E+05
(PID.TID 0000.0001)     ;
(PID.TID 0000.0001)  -----------------------------------
(PID.TID 0000.0001)  tracer number :    9
(PID.TID 0000.0001) PTRACERS_names = /* Tracer short name */
(PID.TID 0000.0001)               'DON'
(PID.TID 0000.0001)     ;
(PID.TID 0000.0001) PTRACERS_long_names = /* Tracer long name */
(PID.TID 0000.0001)               ''
(PID.TID 0000.0001)     ;
(PID.TID 0000.0001) PTRACERS_ioLabel = /* tracer IO Label */
(PID.TID 0000.0001)               '09'
(PID.TID 0000.0001)     ;
(PID.TID 0000.0001) PTRACERS_advScheme = /* Advection Scheme */
(PID.TID 0000.0001)                      33
(PID.TID 0000.0001)     ;
(PID.TID 0000.0001) PTRACERS_SOM_Advection = /* tracer uses SOM advection scheme */
(PID.TID 0000.0001)                   F
(PID.TID 0000.0001)     ;
(PID.TID 0000.0001) PTRACERS_ImplVertAdv = /* implicit vert. advection flag */
(PID.TID 0000.0001)                   F
(PID.TID 0000.0001)     ;
(PID.TID 0000.0001) PTRACERS_diffKh = /* Laplacian Diffusivity */
(PID.TID 0000.0001)                 0.000000000000000E+00
(PID.TID 0000.0001)     ;
(PID.TID 0000.0001) PTRACERS_diffK4 = /* Biharmonic Diffusivity */
(PID.TID 0000.0001)                 0.000000000000000E+00
(PID.TID 0000.0001)     ;
(PID.TID 0000.0001) PTRACERS_diffKrNr = /* Vertical Diffusivity */
(PID.TID 0000.0001)    35 @  1.000000000000000E-05              /* K =  1: 35 */
(PID.TID 0000.0001)     ;
(PID.TID 0000.0001) PTRACERS_useGMRedi = /* apply GM-Redi */
(PID.TID 0000.0001)                   F
(PID.TID 0000.0001)     ;
(PID.TID 0000.0001) PTRACERS_useDWNSLP = /* apply DOWN-SLOPE Flow */
(PID.TID 0000.0001)                   F
(PID.TID 0000.0001)     ;
(PID.TID 0000.0001) PTRACERS_useKPP = /* apply KPP scheme */
(PID.TID 0000.0001)                   F
(PID.TID 0000.0001)     ;
(PID.TID 0000.0001) PTRACERS_ref = /* Reference vertical profile */
(PID.TID 0000.0001)    35 @  0.000000000000000E+00              /* K =  1: 35 */
(PID.TID 0000.0001)     ;
(PID.TID 0000.0001) PTRACERS_EvPrRn =/* tracer conc. in Evap. & Rain */
(PID.TID 0000.0001)                 1.234567000000000E+05
(PID.TID 0000.0001)     ;
(PID.TID 0000.0001)  -----------------------------------
(PID.TID 0000.0001)  tracer number :   10
(PID.TID 0000.0001) PTRACERS_names = /* Tracer short name */
(PID.TID 0000.0001)               'DOP'
(PID.TID 0000.0001)     ;
(PID.TID 0000.0001) PTRACERS_long_names = /* Tracer long name */
(PID.TID 0000.0001)               ''
(PID.TID 0000.0001)     ;
(PID.TID 0000.0001) PTRACERS_ioLabel = /* tracer IO Label */
(PID.TID 0000.0001)               '10'
(PID.TID 0000.0001)     ;
(PID.TID 0000.0001) PTRACERS_advScheme = /* Advection Scheme */
(PID.TID 0000.0001)                      33
(PID.TID 0000.0001)     ;
(PID.TID 0000.0001) PTRACERS_SOM_Advection = /* tracer uses SOM advection scheme */
(PID.TID 0000.0001)                   F
(PID.TID 0000.0001)     ;
(PID.TID 0000.0001) PTRACERS_ImplVertAdv = /* implicit vert. advection flag */
(PID.TID 0000.0001)                   F
(PID.TID 0000.0001)     ;
(PID.TID 0000.0001) PTRACERS_diffKh = /* Laplacian Diffusivity */
(PID.TID 0000.0001)                 0.000000000000000E+00
(PID.TID 0000.0001)     ;
(PID.TID 0000.0001) PTRACERS_diffK4 = /* Biharmonic Diffusivity */
(PID.TID 0000.0001)                 0.000000000000000E+00
(PID.TID 0000.0001)     ;
(PID.TID 0000.0001) PTRACERS_diffKrNr = /* Vertical Diffusivity */
(PID.TID 0000.0001)    35 @  1.000000000000000E-05              /* K =  1: 35 */
(PID.TID 0000.0001)     ;
(PID.TID 0000.0001) PTRACERS_useGMRedi = /* apply GM-Redi */
(PID.TID 0000.0001)                   F
(PID.TID 0000.0001)     ;
(PID.TID 0000.0001) PTRACERS_useDWNSLP = /* apply DOWN-SLOPE Flow */
(PID.TID 0000.0001)                   F
(PID.TID 0000.0001)     ;
(PID.TID 0000.0001) PTRACERS_useKPP = /* apply KPP scheme */
(PID.TID 0000.0001)                   F
(PID.TID 0000.0001)     ;
(PID.TID 0000.0001) PTRACERS_ref = /* Reference vertical profile */
(PID.TID 0000.0001)    35 @  0.000000000000000E+00              /* K =  1: 35 */
(PID.TID 0000.0001)     ;
(PID.TID 0000.0001) PTRACERS_EvPrRn =/* tracer conc. in Evap. & Rain */
(PID.TID 0000.0001)                 1.234567000000000E+05
(PID.TID 0000.0001)     ;
(PID.TID 0000.0001)  -----------------------------------
(PID.TID 0000.0001)  tracer number :   11
(PID.TID 0000.0001) PTRACERS_names = /* Tracer short name */
(PID.TID 0000.0001)               'DOFe'
(PID.TID 0000.0001)     ;
(PID.TID 0000.0001) PTRACERS_long_names = /* Tracer long name */
(PID.TID 0000.0001)               ''
(PID.TID 0000.0001)     ;
(PID.TID 0000.0001) PTRACERS_ioLabel = /* tracer IO Label */
(PID.TID 0000.0001)               '11'
(PID.TID 0000.0001)     ;
(PID.TID 0000.0001) PTRACERS_advScheme = /* Advection Scheme */
(PID.TID 0000.0001)                      33
(PID.TID 0000.0001)     ;
(PID.TID 0000.0001) PTRACERS_SOM_Advection = /* tracer uses SOM advection scheme */
(PID.TID 0000.0001)                   F
(PID.TID 0000.0001)     ;
(PID.TID 0000.0001) PTRACERS_ImplVertAdv = /* implicit vert. advection flag */
(PID.TID 0000.0001)                   F
(PID.TID 0000.0001)     ;
(PID.TID 0000.0001) PTRACERS_diffKh = /* Laplacian Diffusivity */
(PID.TID 0000.0001)                 0.000000000000000E+00
(PID.TID 0000.0001)     ;
(PID.TID 0000.0001) PTRACERS_diffK4 = /* Biharmonic Diffusivity */
(PID.TID 0000.0001)                 0.000000000000000E+00
(PID.TID 0000.0001)     ;
(PID.TID 0000.0001) PTRACERS_diffKrNr = /* Vertical Diffusivity */
(PID.TID 0000.0001)    35 @  1.000000000000000E-05              /* K =  1: 35 */
(PID.TID 0000.0001)     ;
(PID.TID 0000.0001) PTRACERS_useGMRedi = /* apply GM-Redi */
(PID.TID 0000.0001)                   F
(PID.TID 0000.0001)     ;
(PID.TID 0000.0001) PTRACERS_useDWNSLP = /* apply DOWN-SLOPE Flow */
(PID.TID 0000.0001)                   F
(PID.TID 0000.0001)     ;
(PID.TID 0000.0001) PTRACERS_useKPP = /* apply KPP scheme */
(PID.TID 0000.0001)                   F
(PID.TID 0000.0001)     ;
(PID.TID 0000.0001) PTRACERS_ref = /* Reference vertical profile */
(PID.TID 0000.0001)    35 @  0.000000000000000E+00              /* K =  1: 35 */
(PID.TID 0000.0001)     ;
(PID.TID 0000.0001) PTRACERS_EvPrRn =/* tracer conc. in Evap. & Rain */
(PID.TID 0000.0001)                 1.234567000000000E+05
(PID.TID 0000.0001)     ;
(PID.TID 0000.0001)  -----------------------------------
(PID.TID 0000.0001)  tracer number :   12
(PID.TID 0000.0001) PTRACERS_names = /* Tracer short name */
(PID.TID 0000.0001)               'POC'
(PID.TID 0000.0001)     ;
(PID.TID 0000.0001) PTRACERS_long_names = /* Tracer long name */
(PID.TID 0000.0001)               ''
(PID.TID 0000.0001)     ;
(PID.TID 0000.0001) PTRACERS_ioLabel = /* tracer IO Label */
(PID.TID 0000.0001)               '12'
(PID.TID 0000.0001)     ;
(PID.TID 0000.0001) PTRACERS_advScheme = /* Advection Scheme */
(PID.TID 0000.0001)                      33
(PID.TID 0000.0001)     ;
(PID.TID 0000.0001) PTRACERS_SOM_Advection = /* tracer uses SOM advection scheme */
(PID.TID 0000.0001)                   F
(PID.TID 0000.0001)     ;
(PID.TID 0000.0001) PTRACERS_ImplVertAdv = /* implicit vert. advection flag */
(PID.TID 0000.0001)                   F
(PID.TID 0000.0001)     ;
(PID.TID 0000.0001) PTRACERS_diffKh = /* Laplacian Diffusivity */
(PID.TID 0000.0001)                 0.000000000000000E+00
(PID.TID 0000.0001)     ;
(PID.TID 0000.0001) PTRACERS_diffK4 = /* Biharmonic Diffusivity */
(PID.TID 0000.0001)                 0.000000000000000E+00
(PID.TID 0000.0001)     ;
(PID.TID 0000.0001) PTRACERS_diffKrNr = /* Vertical Diffusivity */
(PID.TID 0000.0001)    35 @  1.000000000000000E-05              /* K =  1: 35 */
(PID.TID 0000.0001)     ;
(PID.TID 0000.0001) PTRACERS_useGMRedi = /* apply GM-Redi */
(PID.TID 0000.0001)                   F
(PID.TID 0000.0001)     ;
(PID.TID 0000.0001) PTRACERS_useDWNSLP = /* apply DOWN-SLOPE Flow */
(PID.TID 0000.0001)                   F
(PID.TID 0000.0001)     ;
(PID.TID 0000.0001) PTRACERS_useKPP = /* apply KPP scheme */
(PID.TID 0000.0001)                   F
(PID.TID 0000.0001)     ;
(PID.TID 0000.0001) PTRACERS_ref = /* Reference vertical profile */
(PID.TID 0000.0001)    35 @  0.000000000000000E+00              /* K =  1: 35 */
(PID.TID 0000.0001)     ;
(PID.TID 0000.0001) PTRACERS_EvPrRn =/* tracer conc. in Evap. & Rain */
(PID.TID 0000.0001)                 1.234567000000000E+05
(PID.TID 0000.0001)     ;
(PID.TID 0000.0001)  -----------------------------------
(PID.TID 0000.0001)  tracer number :   13
(PID.TID 0000.0001) PTRACERS_names = /* Tracer short name */
(PID.TID 0000.0001)               'PON'
(PID.TID 0000.0001)     ;
(PID.TID 0000.0001) PTRACERS_long_names = /* Tracer long name */
(PID.TID 0000.0001)               ''
(PID.TID 0000.0001)     ;
(PID.TID 0000.0001) PTRACERS_ioLabel = /* tracer IO Label */
(PID.TID 0000.0001)               '13'
(PID.TID 0000.0001)     ;
(PID.TID 0000.0001) PTRACERS_advScheme = /* Advection Scheme */
(PID.TID 0000.0001)                      33
(PID.TID 0000.0001)     ;
(PID.TID 0000.0001) PTRACERS_SOM_Advection = /* tracer uses SOM advection scheme */
(PID.TID 0000.0001)                   F
(PID.TID 0000.0001)     ;
(PID.TID 0000.0001) PTRACERS_ImplVertAdv = /* implicit vert. advection flag */
(PID.TID 0000.0001)                   F
(PID.TID 0000.0001)     ;
(PID.TID 0000.0001) PTRACERS_diffKh = /* Laplacian Diffusivity */
(PID.TID 0000.0001)                 0.000000000000000E+00
(PID.TID 0000.0001)     ;
(PID.TID 0000.0001) PTRACERS_diffK4 = /* Biharmonic Diffusivity */
(PID.TID 0000.0001)                 0.000000000000000E+00
(PID.TID 0000.0001)     ;
(PID.TID 0000.0001) PTRACERS_diffKrNr = /* Vertical Diffusivity */
(PID.TID 0000.0001)    35 @  1.000000000000000E-05              /* K =  1: 35 */
(PID.TID 0000.0001)     ;
(PID.TID 0000.0001) PTRACERS_useGMRedi = /* apply GM-Redi */
(PID.TID 0000.0001)                   F
(PID.TID 0000.0001)     ;
(PID.TID 0000.0001) PTRACERS_useDWNSLP = /* apply DOWN-SLOPE Flow */
(PID.TID 0000.0001)                   F
(PID.TID 0000.0001)     ;
(PID.TID 0000.0001) PTRACERS_useKPP = /* apply KPP scheme */
(PID.TID 0000.0001)                   F
(PID.TID 0000.0001)     ;
(PID.TID 0000.0001) PTRACERS_ref = /* Reference vertical profile */
(PID.TID 0000.0001)    35 @  0.000000000000000E+00              /* K =  1: 35 */
(PID.TID 0000.0001)     ;
(PID.TID 0000.0001) PTRACERS_EvPrRn =/* tracer conc. in Evap. & Rain */
(PID.TID 0000.0001)                 1.234567000000000E+05
(PID.TID 0000.0001)     ;
(PID.TID 0000.0001)  -----------------------------------
(PID.TID 0000.0001)  tracer number :   14
(PID.TID 0000.0001) PTRACERS_names = /* Tracer short name */
(PID.TID 0000.0001)               'POP'
(PID.TID 0000.0001)     ;
(PID.TID 0000.0001) PTRACERS_long_names = /* Tracer long name */
(PID.TID 0000.0001)               ''
(PID.TID 0000.0001)     ;
(PID.TID 0000.0001) PTRACERS_ioLabel = /* tracer IO Label */
(PID.TID 0000.0001)               '14'
(PID.TID 0000.0001)     ;
(PID.TID 0000.0001) PTRACERS_advScheme = /* Advection Scheme */
(PID.TID 0000.0001)                      33
(PID.TID 0000.0001)     ;
(PID.TID 0000.0001) PTRACERS_SOM_Advection = /* tracer uses SOM advection scheme */
(PID.TID 0000.0001)                   F
(PID.TID 0000.0001)     ;
(PID.TID 0000.0001) PTRACERS_ImplVertAdv = /* implicit vert. advection flag */
(PID.TID 0000.0001)                   F
(PID.TID 0000.0001)     ;
(PID.TID 0000.0001) PTRACERS_diffKh = /* Laplacian Diffusivity */
(PID.TID 0000.0001)                 0.000000000000000E+00
(PID.TID 0000.0001)     ;
(PID.TID 0000.0001) PTRACERS_diffK4 = /* Biharmonic Diffusivity */
(PID.TID 0000.0001)                 0.000000000000000E+00
(PID.TID 0000.0001)     ;
(PID.TID 0000.0001) PTRACERS_diffKrNr = /* Vertical Diffusivity */
(PID.TID 0000.0001)    35 @  1.000000000000000E-05              /* K =  1: 35 */
(PID.TID 0000.0001)     ;
(PID.TID 0000.0001) PTRACERS_useGMRedi = /* apply GM-Redi */
(PID.TID 0000.0001)                   F
(PID.TID 0000.0001)     ;
(PID.TID 0000.0001) PTRACERS_useDWNSLP = /* apply DOWN-SLOPE Flow */
(PID.TID 0000.0001)                   F
(PID.TID 0000.0001)     ;
(PID.TID 0000.0001) PTRACERS_useKPP = /* apply KPP scheme */
(PID.TID 0000.0001)                   F
(PID.TID 0000.0001)     ;
(PID.TID 0000.0001) PTRACERS_ref = /* Reference vertical profile */
(PID.TID 0000.0001)    35 @  0.000000000000000E+00              /* K =  1: 35 */
(PID.TID 0000.0001)     ;
(PID.TID 0000.0001) PTRACERS_EvPrRn =/* tracer conc. in Evap. & Rain */
(PID.TID 0000.0001)                 1.234567000000000E+05
(PID.TID 0000.0001)     ;
(PID.TID 0000.0001)  -----------------------------------
(PID.TID 0000.0001)  tracer number :   15
(PID.TID 0000.0001) PTRACERS_names = /* Tracer short name */
(PID.TID 0000.0001)               'POSi'
(PID.TID 0000.0001)     ;
(PID.TID 0000.0001) PTRACERS_long_names = /* Tracer long name */
(PID.TID 0000.0001)               ''
(PID.TID 0000.0001)     ;
(PID.TID 0000.0001) PTRACERS_ioLabel = /* tracer IO Label */
(PID.TID 0000.0001)               '15'
(PID.TID 0000.0001)     ;
(PID.TID 0000.0001) PTRACERS_advScheme = /* Advection Scheme */
(PID.TID 0000.0001)                      33
(PID.TID 0000.0001)     ;
(PID.TID 0000.0001) PTRACERS_SOM_Advection = /* tracer uses SOM advection scheme */
(PID.TID 0000.0001)                   F
(PID.TID 0000.0001)     ;
(PID.TID 0000.0001) PTRACERS_ImplVertAdv = /* implicit vert. advection flag */
(PID.TID 0000.0001)                   F
(PID.TID 0000.0001)     ;
(PID.TID 0000.0001) PTRACERS_diffKh = /* Laplacian Diffusivity */
(PID.TID 0000.0001)                 0.000000000000000E+00
(PID.TID 0000.0001)     ;
(PID.TID 0000.0001) PTRACERS_diffK4 = /* Biharmonic Diffusivity */
(PID.TID 0000.0001)                 0.000000000000000E+00
(PID.TID 0000.0001)     ;
(PID.TID 0000.0001) PTRACERS_diffKrNr = /* Vertical Diffusivity */
(PID.TID 0000.0001)    35 @  1.000000000000000E-05              /* K =  1: 35 */
(PID.TID 0000.0001)     ;
(PID.TID 0000.0001) PTRACERS_useGMRedi = /* apply GM-Redi */
(PID.TID 0000.0001)                   F
(PID.TID 0000.0001)     ;
(PID.TID 0000.0001) PTRACERS_useDWNSLP = /* apply DOWN-SLOPE Flow */
(PID.TID 0000.0001)                   F
(PID.TID 0000.0001)     ;
(PID.TID 0000.0001) PTRACERS_useKPP = /* apply KPP scheme */
(PID.TID 0000.0001)                   F
(PID.TID 0000.0001)     ;
(PID.TID 0000.0001) PTRACERS_ref = /* Reference vertical profile */
(PID.TID 0000.0001)    35 @  0.000000000000000E+00              /* K =  1: 35 */
(PID.TID 0000.0001)     ;
(PID.TID 0000.0001) PTRACERS_EvPrRn =/* tracer conc. in Evap. & Rain */
(PID.TID 0000.0001)                 1.234567000000000E+05
(PID.TID 0000.0001)     ;
(PID.TID 0000.0001)  -----------------------------------
(PID.TID 0000.0001)  tracer number :   16
(PID.TID 0000.0001) PTRACERS_names = /* Tracer short name */
(PID.TID 0000.0001)               'POFe'
(PID.TID 0000.0001)     ;
(PID.TID 0000.0001) PTRACERS_long_names = /* Tracer long name */
(PID.TID 0000.0001)               ''
(PID.TID 0000.0001)     ;
(PID.TID 0000.0001) PTRACERS_ioLabel = /* tracer IO Label */
(PID.TID 0000.0001)               '16'
(PID.TID 0000.0001)     ;
(PID.TID 0000.0001) PTRACERS_advScheme = /* Advection Scheme */
(PID.TID 0000.0001)                      33
(PID.TID 0000.0001)     ;
(PID.TID 0000.0001) PTRACERS_SOM_Advection = /* tracer uses SOM advection scheme */
(PID.TID 0000.0001)                   F
(PID.TID 0000.0001)     ;
(PID.TID 0000.0001) PTRACERS_ImplVertAdv = /* implicit vert. advection flag */
(PID.TID 0000.0001)                   F
(PID.TID 0000.0001)     ;
(PID.TID 0000.0001) PTRACERS_diffKh = /* Laplacian Diffusivity */
(PID.TID 0000.0001)                 0.000000000000000E+00
(PID.TID 0000.0001)     ;
(PID.TID 0000.0001) PTRACERS_diffK4 = /* Biharmonic Diffusivity */
(PID.TID 0000.0001)                 0.000000000000000E+00
(PID.TID 0000.0001)     ;
(PID.TID 0000.0001) PTRACERS_diffKrNr = /* Vertical Diffusivity */
(PID.TID 0000.0001)    35 @  1.000000000000000E-05              /* K =  1: 35 */
(PID.TID 0000.0001)     ;
(PID.TID 0000.0001) PTRACERS_useGMRedi = /* apply GM-Redi */
(PID.TID 0000.0001)                   F
(PID.TID 0000.0001)     ;
(PID.TID 0000.0001) PTRACERS_useDWNSLP = /* apply DOWN-SLOPE Flow */
(PID.TID 0000.0001)                   F
(PID.TID 0000.0001)     ;
(PID.TID 0000.0001) PTRACERS_useKPP = /* apply KPP scheme */
(PID.TID 0000.0001)                   F
(PID.TID 0000.0001)     ;
(PID.TID 0000.0001) PTRACERS_ref = /* Reference vertical profile */
(PID.TID 0000.0001)    35 @  0.000000000000000E+00              /* K =  1: 35 */
(PID.TID 0000.0001)     ;
(PID.TID 0000.0001) PTRACERS_EvPrRn =/* tracer conc. in Evap. & Rain */
(PID.TID 0000.0001)                 1.234567000000000E+05
(PID.TID 0000.0001)     ;
(PID.TID 0000.0001)  -----------------------------------
(PID.TID 0000.0001)  tracer number :   17
(PID.TID 0000.0001) PTRACERS_names = /* Tracer short name */
(PID.TID 0000.0001)               'PIC'
(PID.TID 0000.0001)     ;
(PID.TID 0000.0001) PTRACERS_long_names = /* Tracer long name */
(PID.TID 0000.0001)               ''
(PID.TID 0000.0001)     ;
(PID.TID 0000.0001) PTRACERS_ioLabel = /* tracer IO Label */
(PID.TID 0000.0001)               '17'
(PID.TID 0000.0001)     ;
(PID.TID 0000.0001) PTRACERS_advScheme = /* Advection Scheme */
(PID.TID 0000.0001)                      33
(PID.TID 0000.0001)     ;
(PID.TID 0000.0001) PTRACERS_SOM_Advection = /* tracer uses SOM advection scheme */
(PID.TID 0000.0001)                   F
(PID.TID 0000.0001)     ;
(PID.TID 0000.0001) PTRACERS_ImplVertAdv = /* implicit vert. advection flag */
(PID.TID 0000.0001)                   F
(PID.TID 0000.0001)     ;
(PID.TID 0000.0001) PTRACERS_diffKh = /* Laplacian Diffusivity */
(PID.TID 0000.0001)                 0.000000000000000E+00
(PID.TID 0000.0001)     ;
(PID.TID 0000.0001) PTRACERS_diffK4 = /* Biharmonic Diffusivity */
(PID.TID 0000.0001)                 0.000000000000000E+00
(PID.TID 0000.0001)     ;
(PID.TID 0000.0001) PTRACERS_diffKrNr = /* Vertical Diffusivity */
(PID.TID 0000.0001)    35 @  1.000000000000000E-05              /* K =  1: 35 */
(PID.TID 0000.0001)     ;
(PID.TID 0000.0001) PTRACERS_useGMRedi = /* apply GM-Redi */
(PID.TID 0000.0001)                   F
(PID.TID 0000.0001)     ;
(PID.TID 0000.0001) PTRACERS_useDWNSLP = /* apply DOWN-SLOPE Flow */
(PID.TID 0000.0001)                   F
(PID.TID 0000.0001)     ;
(PID.TID 0000.0001) PTRACERS_useKPP = /* apply KPP scheme */
(PID.TID 0000.0001)                   F
(PID.TID 0000.0001)     ;
(PID.TID 0000.0001) PTRACERS_ref = /* Reference vertical profile */
(PID.TID 0000.0001)    35 @  0.000000000000000E+00              /* K =  1: 35 */
(PID.TID 0000.0001)     ;
(PID.TID 0000.0001) PTRACERS_EvPrRn =/* tracer conc. in Evap. & Rain */
(PID.TID 0000.0001)                 1.234567000000000E+05
(PID.TID 0000.0001)     ;
(PID.TID 0000.0001)  -----------------------------------
(PID.TID 0000.0001)  tracer number :   18
(PID.TID 0000.0001) PTRACERS_names = /* Tracer short name */
(PID.TID 0000.0001)               'c01'
(PID.TID 0000.0001)     ;
(PID.TID 0000.0001) PTRACERS_long_names = /* Tracer long name */
(PID.TID 0000.0001)               ''
(PID.TID 0000.0001)     ;
(PID.TID 0000.0001) PTRACERS_ioLabel = /* tracer IO Label */
(PID.TID 0000.0001)               '18'
(PID.TID 0000.0001)     ;
(PID.TID 0000.0001) PTRACERS_advScheme = /* Advection Scheme */
(PID.TID 0000.0001)                      33
(PID.TID 0000.0001)     ;
(PID.TID 0000.0001) PTRACERS_SOM_Advection = /* tracer uses SOM advection scheme */
(PID.TID 0000.0001)                   F
(PID.TID 0000.0001)     ;
(PID.TID 0000.0001) PTRACERS_ImplVertAdv = /* implicit vert. advection flag */
(PID.TID 0000.0001)                   F
(PID.TID 0000.0001)     ;
(PID.TID 0000.0001) PTRACERS_diffKh = /* Laplacian Diffusivity */
(PID.TID 0000.0001)                 0.000000000000000E+00
(PID.TID 0000.0001)     ;
(PID.TID 0000.0001) PTRACERS_diffK4 = /* Biharmonic Diffusivity */
(PID.TID 0000.0001)                 0.000000000000000E+00
(PID.TID 0000.0001)     ;
(PID.TID 0000.0001) PTRACERS_diffKrNr = /* Vertical Diffusivity */
(PID.TID 0000.0001)    35 @  1.000000000000000E-05              /* K =  1: 35 */
(PID.TID 0000.0001)     ;
(PID.TID 0000.0001) PTRACERS_useGMRedi = /* apply GM-Redi */
(PID.TID 0000.0001)                   F
(PID.TID 0000.0001)     ;
(PID.TID 0000.0001) PTRACERS_useDWNSLP = /* apply DOWN-SLOPE Flow */
(PID.TID 0000.0001)                   F
(PID.TID 0000.0001)     ;
(PID.TID 0000.0001) PTRACERS_useKPP = /* apply KPP scheme */
(PID.TID 0000.0001)                   F
(PID.TID 0000.0001)     ;
(PID.TID 0000.0001) PTRACERS_ref = /* Reference vertical profile */
(PID.TID 0000.0001)    35 @  0.000000000000000E+00              /* K =  1: 35 */
(PID.TID 0000.0001)     ;
(PID.TID 0000.0001) PTRACERS_EvPrRn =/* tracer conc. in Evap. & Rain */
(PID.TID 0000.0001)                 1.234567000000000E+05
(PID.TID 0000.0001)     ;
(PID.TID 0000.0001)  -----------------------------------
(PID.TID 0000.0001)  tracer number :   19
(PID.TID 0000.0001) PTRACERS_names = /* Tracer short name */
(PID.TID 0000.0001)               'c02'
(PID.TID 0000.0001)     ;
(PID.TID 0000.0001) PTRACERS_long_names = /* Tracer long name */
(PID.TID 0000.0001)               ''
(PID.TID 0000.0001)     ;
(PID.TID 0000.0001) PTRACERS_ioLabel = /* tracer IO Label */
(PID.TID 0000.0001)               '19'
(PID.TID 0000.0001)     ;
(PID.TID 0000.0001) PTRACERS_advScheme = /* Advection Scheme */
(PID.TID 0000.0001)                      33
(PID.TID 0000.0001)     ;
(PID.TID 0000.0001) PTRACERS_SOM_Advection = /* tracer uses SOM advection scheme */
(PID.TID 0000.0001)                   F
(PID.TID 0000.0001)     ;
(PID.TID 0000.0001) PTRACERS_ImplVertAdv = /* implicit vert. advection flag */
(PID.TID 0000.0001)                   F
(PID.TID 0000.0001)     ;
(PID.TID 0000.0001) PTRACERS_diffKh = /* Laplacian Diffusivity */
(PID.TID 0000.0001)                 0.000000000000000E+00
(PID.TID 0000.0001)     ;
(PID.TID 0000.0001) PTRACERS_diffK4 = /* Biharmonic Diffusivity */
(PID.TID 0000.0001)                 0.000000000000000E+00
(PID.TID 0000.0001)     ;
(PID.TID 0000.0001) PTRACERS_diffKrNr = /* Vertical Diffusivity */
(PID.TID 0000.0001)    35 @  1.000000000000000E-05              /* K =  1: 35 */
(PID.TID 0000.0001)     ;
(PID.TID 0000.0001) PTRACERS_useGMRedi = /* apply GM-Redi */
(PID.TID 0000.0001)                   F
(PID.TID 0000.0001)     ;
(PID.TID 0000.0001) PTRACERS_useDWNSLP = /* apply DOWN-SLOPE Flow */
(PID.TID 0000.0001)                   F
(PID.TID 0000.0001)     ;
(PID.TID 0000.0001) PTRACERS_useKPP = /* apply KPP scheme */
(PID.TID 0000.0001)                   F
(PID.TID 0000.0001)     ;
(PID.TID 0000.0001) PTRACERS_ref = /* Reference vertical profile */
(PID.TID 0000.0001)    35 @  0.000000000000000E+00              /* K =  1: 35 */
(PID.TID 0000.0001)     ;
(PID.TID 0000.0001) PTRACERS_EvPrRn =/* tracer conc. in Evap. & Rain */
(PID.TID 0000.0001)                 1.234567000000000E+05
(PID.TID 0000.0001)     ;
(PID.TID 0000.0001)  -----------------------------------
(PID.TID 0000.0001)  tracer number :   20
(PID.TID 0000.0001) PTRACERS_names = /* Tracer short name */
(PID.TID 0000.0001)               'c03'
(PID.TID 0000.0001)     ;
(PID.TID 0000.0001) PTRACERS_long_names = /* Tracer long name */
(PID.TID 0000.0001)               ''
(PID.TID 0000.0001)     ;
(PID.TID 0000.0001) PTRACERS_ioLabel = /* tracer IO Label */
(PID.TID 0000.0001)               '20'
(PID.TID 0000.0001)     ;
(PID.TID 0000.0001) PTRACERS_advScheme = /* Advection Scheme */
(PID.TID 0000.0001)                      33
(PID.TID 0000.0001)     ;
(PID.TID 0000.0001) PTRACERS_SOM_Advection = /* tracer uses SOM advection scheme */
(PID.TID 0000.0001)                   F
(PID.TID 0000.0001)     ;
(PID.TID 0000.0001) PTRACERS_ImplVertAdv = /* implicit vert. advection flag */
(PID.TID 0000.0001)                   F
(PID.TID 0000.0001)     ;
(PID.TID 0000.0001) PTRACERS_diffKh = /* Laplacian Diffusivity */
(PID.TID 0000.0001)                 0.000000000000000E+00
(PID.TID 0000.0001)     ;
(PID.TID 0000.0001) PTRACERS_diffK4 = /* Biharmonic Diffusivity */
(PID.TID 0000.0001)                 0.000000000000000E+00
(PID.TID 0000.0001)     ;
(PID.TID 0000.0001) PTRACERS_diffKrNr = /* Vertical Diffusivity */
(PID.TID 0000.0001)    35 @  1.000000000000000E-05              /* K =  1: 35 */
(PID.TID 0000.0001)     ;
(PID.TID 0000.0001) PTRACERS_useGMRedi = /* apply GM-Redi */
(PID.TID 0000.0001)                   F
(PID.TID 0000.0001)     ;
(PID.TID 0000.0001) PTRACERS_useDWNSLP = /* apply DOWN-SLOPE Flow */
(PID.TID 0000.0001)                   F
(PID.TID 0000.0001)     ;
(PID.TID 0000.0001) PTRACERS_useKPP = /* apply KPP scheme */
(PID.TID 0000.0001)                   F
(PID.TID 0000.0001)     ;
(PID.TID 0000.0001) PTRACERS_ref = /* Reference vertical profile */
(PID.TID 0000.0001)    35 @  0.000000000000000E+00              /* K =  1: 35 */
(PID.TID 0000.0001)     ;
(PID.TID 0000.0001) PTRACERS_EvPrRn =/* tracer conc. in Evap. & Rain */
(PID.TID 0000.0001)                 1.234567000000000E+05
(PID.TID 0000.0001)     ;
(PID.TID 0000.0001)  -----------------------------------
(PID.TID 0000.0001)  tracer number :   21
(PID.TID 0000.0001) PTRACERS_names = /* Tracer short name */
(PID.TID 0000.0001)               'c04'
(PID.TID 0000.0001)     ;
(PID.TID 0000.0001) PTRACERS_long_names = /* Tracer long name */
(PID.TID 0000.0001)               ''
(PID.TID 0000.0001)     ;
(PID.TID 0000.0001) PTRACERS_ioLabel = /* tracer IO Label */
(PID.TID 0000.0001)               '21'
(PID.TID 0000.0001)     ;
(PID.TID 0000.0001) PTRACERS_advScheme = /* Advection Scheme */
(PID.TID 0000.0001)                      33
(PID.TID 0000.0001)     ;
(PID.TID 0000.0001) PTRACERS_SOM_Advection = /* tracer uses SOM advection scheme */
(PID.TID 0000.0001)                   F
(PID.TID 0000.0001)     ;
(PID.TID 0000.0001) PTRACERS_ImplVertAdv = /* implicit vert. advection flag */
(PID.TID 0000.0001)                   F
(PID.TID 0000.0001)     ;
(PID.TID 0000.0001) PTRACERS_diffKh = /* Laplacian Diffusivity */
(PID.TID 0000.0001)                 0.000000000000000E+00
(PID.TID 0000.0001)     ;
(PID.TID 0000.0001) PTRACERS_diffK4 = /* Biharmonic Diffusivity */
(PID.TID 0000.0001)                 0.000000000000000E+00
(PID.TID 0000.0001)     ;
(PID.TID 0000.0001) PTRACERS_diffKrNr = /* Vertical Diffusivity */
(PID.TID 0000.0001)    35 @  1.000000000000000E-05              /* K =  1: 35 */
(PID.TID 0000.0001)     ;
(PID.TID 0000.0001) PTRACERS_useGMRedi = /* apply GM-Redi */
(PID.TID 0000.0001)                   F
(PID.TID 0000.0001)     ;
(PID.TID 0000.0001) PTRACERS_useDWNSLP = /* apply DOWN-SLOPE Flow */
(PID.TID 0000.0001)                   F
(PID.TID 0000.0001)     ;
(PID.TID 0000.0001) PTRACERS_useKPP = /* apply KPP scheme */
(PID.TID 0000.0001)                   F
(PID.TID 0000.0001)     ;
(PID.TID 0000.0001) PTRACERS_ref = /* Reference vertical profile */
(PID.TID 0000.0001)    35 @  0.000000000000000E+00              /* K =  1: 35 */
(PID.TID 0000.0001)     ;
(PID.TID 0000.0001) PTRACERS_EvPrRn =/* tracer conc. in Evap. & Rain */
(PID.TID 0000.0001)                 1.234567000000000E+05
(PID.TID 0000.0001)     ;
(PID.TID 0000.0001)  -----------------------------------
(PID.TID 0000.0001)  tracer number :   22
(PID.TID 0000.0001) PTRACERS_names = /* Tracer short name */
(PID.TID 0000.0001)               'c05'
(PID.TID 0000.0001)     ;
(PID.TID 0000.0001) PTRACERS_long_names = /* Tracer long name */
(PID.TID 0000.0001)               ''
(PID.TID 0000.0001)     ;
(PID.TID 0000.0001) PTRACERS_ioLabel = /* tracer IO Label */
(PID.TID 0000.0001)               '22'
(PID.TID 0000.0001)     ;
(PID.TID 0000.0001) PTRACERS_advScheme = /* Advection Scheme */
(PID.TID 0000.0001)                      33
(PID.TID 0000.0001)     ;
(PID.TID 0000.0001) PTRACERS_SOM_Advection = /* tracer uses SOM advection scheme */
(PID.TID 0000.0001)                   F
(PID.TID 0000.0001)     ;
(PID.TID 0000.0001) PTRACERS_ImplVertAdv = /* implicit vert. advection flag */
(PID.TID 0000.0001)                   F
(PID.TID 0000.0001)     ;
(PID.TID 0000.0001) PTRACERS_diffKh = /* Laplacian Diffusivity */
(PID.TID 0000.0001)                 0.000000000000000E+00
(PID.TID 0000.0001)     ;
(PID.TID 0000.0001) PTRACERS_diffK4 = /* Biharmonic Diffusivity */
(PID.TID 0000.0001)                 0.000000000000000E+00
(PID.TID 0000.0001)     ;
(PID.TID 0000.0001) PTRACERS_diffKrNr = /* Vertical Diffusivity */
(PID.TID 0000.0001)    35 @  1.000000000000000E-05              /* K =  1: 35 */
(PID.TID 0000.0001)     ;
(PID.TID 0000.0001) PTRACERS_useGMRedi = /* apply GM-Redi */
(PID.TID 0000.0001)                   F
(PID.TID 0000.0001)     ;
(PID.TID 0000.0001) PTRACERS_useDWNSLP = /* apply DOWN-SLOPE Flow */
(PID.TID 0000.0001)                   F
(PID.TID 0000.0001)     ;
(PID.TID 0000.0001) PTRACERS_useKPP = /* apply KPP scheme */
(PID.TID 0000.0001)                   F
(PID.TID 0000.0001)     ;
(PID.TID 0000.0001) PTRACERS_ref = /* Reference vertical profile */
(PID.TID 0000.0001)    35 @  0.000000000000000E+00              /* K =  1: 35 */
(PID.TID 0000.0001)     ;
(PID.TID 0000.0001) PTRACERS_EvPrRn =/* tracer conc. in Evap. & Rain */
(PID.TID 0000.0001)                 1.234567000000000E+05
(PID.TID 0000.0001)     ;
(PID.TID 0000.0001)  -----------------------------------
(PID.TID 0000.0001)  tracer number :   23
(PID.TID 0000.0001) PTRACERS_names = /* Tracer short name */
(PID.TID 0000.0001)               'c06'
(PID.TID 0000.0001)     ;
(PID.TID 0000.0001) PTRACERS_long_names = /* Tracer long name */
(PID.TID 0000.0001)               ''
(PID.TID 0000.0001)     ;
(PID.TID 0000.0001) PTRACERS_ioLabel = /* tracer IO Label */
(PID.TID 0000.0001)               '23'
(PID.TID 0000.0001)     ;
(PID.TID 0000.0001) PTRACERS_advScheme = /* Advection Scheme */
(PID.TID 0000.0001)                      33
(PID.TID 0000.0001)     ;
(PID.TID 0000.0001) PTRACERS_SOM_Advection = /* tracer uses SOM advection scheme */
(PID.TID 0000.0001)                   F
(PID.TID 0000.0001)     ;
(PID.TID 0000.0001) PTRACERS_ImplVertAdv = /* implicit vert. advection flag */
(PID.TID 0000.0001)                   F
(PID.TID 0000.0001)     ;
(PID.TID 0000.0001) PTRACERS_diffKh = /* Laplacian Diffusivity */
(PID.TID 0000.0001)                 0.000000000000000E+00
(PID.TID 0000.0001)     ;
(PID.TID 0000.0001) PTRACERS_diffK4 = /* Biharmonic Diffusivity */
(PID.TID 0000.0001)                 0.000000000000000E+00
(PID.TID 0000.0001)     ;
(PID.TID 0000.0001) PTRACERS_diffKrNr = /* Vertical Diffusivity */
(PID.TID 0000.0001)    35 @  1.000000000000000E-05              /* K =  1: 35 */
(PID.TID 0000.0001)     ;
(PID.TID 0000.0001) PTRACERS_useGMRedi = /* apply GM-Redi */
(PID.TID 0000.0001)                   F
(PID.TID 0000.0001)     ;
(PID.TID 0000.0001) PTRACERS_useDWNSLP = /* apply DOWN-SLOPE Flow */
(PID.TID 0000.0001)                   F
(PID.TID 0000.0001)     ;
(PID.TID 0000.0001) PTRACERS_useKPP = /* apply KPP scheme */
(PID.TID 0000.0001)                   F
(PID.TID 0000.0001)     ;
(PID.TID 0000.0001) PTRACERS_ref = /* Reference vertical profile */
(PID.TID 0000.0001)    35 @  0.000000000000000E+00              /* K =  1: 35 */
(PID.TID 0000.0001)     ;
(PID.TID 0000.0001) PTRACERS_EvPrRn =/* tracer conc. in Evap. & Rain */
(PID.TID 0000.0001)                 1.234567000000000E+05
(PID.TID 0000.0001)     ;
(PID.TID 0000.0001)  -----------------------------------
(PID.TID 0000.0001)  tracer number :   24
(PID.TID 0000.0001) PTRACERS_names = /* Tracer short name */
(PID.TID 0000.0001)               'c07'
(PID.TID 0000.0001)     ;
(PID.TID 0000.0001) PTRACERS_long_names = /* Tracer long name */
(PID.TID 0000.0001)               ''
(PID.TID 0000.0001)     ;
(PID.TID 0000.0001) PTRACERS_ioLabel = /* tracer IO Label */
(PID.TID 0000.0001)               '24'
(PID.TID 0000.0001)     ;
(PID.TID 0000.0001) PTRACERS_advScheme = /* Advection Scheme */
(PID.TID 0000.0001)                      33
(PID.TID 0000.0001)     ;
(PID.TID 0000.0001) PTRACERS_SOM_Advection = /* tracer uses SOM advection scheme */
(PID.TID 0000.0001)                   F
(PID.TID 0000.0001)     ;
(PID.TID 0000.0001) PTRACERS_ImplVertAdv = /* implicit vert. advection flag */
(PID.TID 0000.0001)                   F
(PID.TID 0000.0001)     ;
(PID.TID 0000.0001) PTRACERS_diffKh = /* Laplacian Diffusivity */
(PID.TID 0000.0001)                 0.000000000000000E+00
(PID.TID 0000.0001)     ;
(PID.TID 0000.0001) PTRACERS_diffK4 = /* Biharmonic Diffusivity */
(PID.TID 0000.0001)                 0.000000000000000E+00
(PID.TID 0000.0001)     ;
(PID.TID 0000.0001) PTRACERS_diffKrNr = /* Vertical Diffusivity */
(PID.TID 0000.0001)    35 @  1.000000000000000E-05              /* K =  1: 35 */
(PID.TID 0000.0001)     ;
(PID.TID 0000.0001) PTRACERS_useGMRedi = /* apply GM-Redi */
(PID.TID 0000.0001)                   F
(PID.TID 0000.0001)     ;
(PID.TID 0000.0001) PTRACERS_useDWNSLP = /* apply DOWN-SLOPE Flow */
(PID.TID 0000.0001)                   F
(PID.TID 0000.0001)     ;
(PID.TID 0000.0001) PTRACERS_useKPP = /* apply KPP scheme */
(PID.TID 0000.0001)                   F
(PID.TID 0000.0001)     ;
(PID.TID 0000.0001) PTRACERS_ref = /* Reference vertical profile */
(PID.TID 0000.0001)    35 @  0.000000000000000E+00              /* K =  1: 35 */
(PID.TID 0000.0001)     ;
(PID.TID 0000.0001) PTRACERS_EvPrRn =/* tracer conc. in Evap. & Rain */
(PID.TID 0000.0001)                 1.234567000000000E+05
(PID.TID 0000.0001)     ;
(PID.TID 0000.0001)  -----------------------------------
(PID.TID 0000.0001)  tracer number :   25
(PID.TID 0000.0001) PTRACERS_names = /* Tracer short name */
(PID.TID 0000.0001)               'c08'
(PID.TID 0000.0001)     ;
(PID.TID 0000.0001) PTRACERS_long_names = /* Tracer long name */
(PID.TID 0000.0001)               ''
(PID.TID 0000.0001)     ;
(PID.TID 0000.0001) PTRACERS_ioLabel = /* tracer IO Label */
(PID.TID 0000.0001)               '25'
(PID.TID 0000.0001)     ;
(PID.TID 0000.0001) PTRACERS_advScheme = /* Advection Scheme */
(PID.TID 0000.0001)                      33
(PID.TID 0000.0001)     ;
(PID.TID 0000.0001) PTRACERS_SOM_Advection = /* tracer uses SOM advection scheme */
(PID.TID 0000.0001)                   F
(PID.TID 0000.0001)     ;
(PID.TID 0000.0001) PTRACERS_ImplVertAdv = /* implicit vert. advection flag */
(PID.TID 0000.0001)                   F
(PID.TID 0000.0001)     ;
(PID.TID 0000.0001) PTRACERS_diffKh = /* Laplacian Diffusivity */
(PID.TID 0000.0001)                 0.000000000000000E+00
(PID.TID 0000.0001)     ;
(PID.TID 0000.0001) PTRACERS_diffK4 = /* Biharmonic Diffusivity */
(PID.TID 0000.0001)                 0.000000000000000E+00
(PID.TID 0000.0001)     ;
(PID.TID 0000.0001) PTRACERS_diffKrNr = /* Vertical Diffusivity */
(PID.TID 0000.0001)    35 @  1.000000000000000E-05              /* K =  1: 35 */
(PID.TID 0000.0001)     ;
(PID.TID 0000.0001) PTRACERS_useGMRedi = /* apply GM-Redi */
(PID.TID 0000.0001)                   F
(PID.TID 0000.0001)     ;
(PID.TID 0000.0001) PTRACERS_useDWNSLP = /* apply DOWN-SLOPE Flow */
(PID.TID 0000.0001)                   F
(PID.TID 0000.0001)     ;
(PID.TID 0000.0001) PTRACERS_useKPP = /* apply KPP scheme */
(PID.TID 0000.0001)                   F
(PID.TID 0000.0001)     ;
(PID.TID 0000.0001) PTRACERS_ref = /* Reference vertical profile */
(PID.TID 0000.0001)    35 @  0.000000000000000E+00              /* K =  1: 35 */
(PID.TID 0000.0001)     ;
(PID.TID 0000.0001) PTRACERS_EvPrRn =/* tracer conc. in Evap. & Rain */
(PID.TID 0000.0001)                 1.234567000000000E+05
(PID.TID 0000.0001)     ;
(PID.TID 0000.0001)  -----------------------------------
(PID.TID 0000.0001)  tracer number :   26
(PID.TID 0000.0001) PTRACERS_names = /* Tracer short name */
(PID.TID 0000.0001)               'c09'
(PID.TID 0000.0001)     ;
(PID.TID 0000.0001) PTRACERS_long_names = /* Tracer long name */
(PID.TID 0000.0001)               ''
(PID.TID 0000.0001)     ;
(PID.TID 0000.0001) PTRACERS_ioLabel = /* tracer IO Label */
(PID.TID 0000.0001)               '26'
(PID.TID 0000.0001)     ;
(PID.TID 0000.0001) PTRACERS_advScheme = /* Advection Scheme */
(PID.TID 0000.0001)                      33
(PID.TID 0000.0001)     ;
(PID.TID 0000.0001) PTRACERS_SOM_Advection = /* tracer uses SOM advection scheme */
(PID.TID 0000.0001)                   F
(PID.TID 0000.0001)     ;
(PID.TID 0000.0001) PTRACERS_ImplVertAdv = /* implicit vert. advection flag */
(PID.TID 0000.0001)                   F
(PID.TID 0000.0001)     ;
(PID.TID 0000.0001) PTRACERS_diffKh = /* Laplacian Diffusivity */
(PID.TID 0000.0001)                 0.000000000000000E+00
(PID.TID 0000.0001)     ;
(PID.TID 0000.0001) PTRACERS_diffK4 = /* Biharmonic Diffusivity */
(PID.TID 0000.0001)                 0.000000000000000E+00
(PID.TID 0000.0001)     ;
(PID.TID 0000.0001) PTRACERS_diffKrNr = /* Vertical Diffusivity */
(PID.TID 0000.0001)    35 @  1.000000000000000E-05              /* K =  1: 35 */
(PID.TID 0000.0001)     ;
(PID.TID 0000.0001) PTRACERS_useGMRedi = /* apply GM-Redi */
(PID.TID 0000.0001)                   F
(PID.TID 0000.0001)     ;
(PID.TID 0000.0001) PTRACERS_useDWNSLP = /* apply DOWN-SLOPE Flow */
(PID.TID 0000.0001)                   F
(PID.TID 0000.0001)     ;
(PID.TID 0000.0001) PTRACERS_useKPP = /* apply KPP scheme */
(PID.TID 0000.0001)                   F
(PID.TID 0000.0001)     ;
(PID.TID 0000.0001) PTRACERS_ref = /* Reference vertical profile */
(PID.TID 0000.0001)    35 @  0.000000000000000E+00              /* K =  1: 35 */
(PID.TID 0000.0001)     ;
(PID.TID 0000.0001) PTRACERS_EvPrRn =/* tracer conc. in Evap. & Rain */
(PID.TID 0000.0001)                 1.234567000000000E+05
(PID.TID 0000.0001)     ;
(PID.TID 0000.0001)  -----------------------------------
(PID.TID 0000.0001)  tracer number :   27
(PID.TID 0000.0001) PTRACERS_names = /* Tracer short name */
(PID.TID 0000.0001)               'c10'
(PID.TID 0000.0001)     ;
(PID.TID 0000.0001) PTRACERS_long_names = /* Tracer long name */
(PID.TID 0000.0001)               ''
(PID.TID 0000.0001)     ;
(PID.TID 0000.0001) PTRACERS_ioLabel = /* tracer IO Label */
(PID.TID 0000.0001)               '27'
(PID.TID 0000.0001)     ;
(PID.TID 0000.0001) PTRACERS_advScheme = /* Advection Scheme */
(PID.TID 0000.0001)                      33
(PID.TID 0000.0001)     ;
(PID.TID 0000.0001) PTRACERS_SOM_Advection = /* tracer uses SOM advection scheme */
(PID.TID 0000.0001)                   F
(PID.TID 0000.0001)     ;
(PID.TID 0000.0001) PTRACERS_ImplVertAdv = /* implicit vert. advection flag */
(PID.TID 0000.0001)                   F
(PID.TID 0000.0001)     ;
(PID.TID 0000.0001) PTRACERS_diffKh = /* Laplacian Diffusivity */
(PID.TID 0000.0001)                 0.000000000000000E+00
(PID.TID 0000.0001)     ;
(PID.TID 0000.0001) PTRACERS_diffK4 = /* Biharmonic Diffusivity */
(PID.TID 0000.0001)                 0.000000000000000E+00
(PID.TID 0000.0001)     ;
(PID.TID 0000.0001) PTRACERS_diffKrNr = /* Vertical Diffusivity */
(PID.TID 0000.0001)    35 @  1.000000000000000E-05              /* K =  1: 35 */
(PID.TID 0000.0001)     ;
(PID.TID 0000.0001) PTRACERS_useGMRedi = /* apply GM-Redi */
(PID.TID 0000.0001)                   F
(PID.TID 0000.0001)     ;
(PID.TID 0000.0001) PTRACERS_useDWNSLP = /* apply DOWN-SLOPE Flow */
(PID.TID 0000.0001)                   F
(PID.TID 0000.0001)     ;
(PID.TID 0000.0001) PTRACERS_useKPP = /* apply KPP scheme */
(PID.TID 0000.0001)                   F
(PID.TID 0000.0001)     ;
(PID.TID 0000.0001) PTRACERS_ref = /* Reference vertical profile */
(PID.TID 0000.0001)    35 @  0.000000000000000E+00              /* K =  1: 35 */
(PID.TID 0000.0001)     ;
(PID.TID 0000.0001) PTRACERS_EvPrRn =/* tracer conc. in Evap. & Rain */
(PID.TID 0000.0001)                 1.234567000000000E+05
(PID.TID 0000.0001)     ;
(PID.TID 0000.0001)  -----------------------------------
(PID.TID 0000.0001)  tracer number :   28
(PID.TID 0000.0001) PTRACERS_names = /* Tracer short name */
(PID.TID 0000.0001)               'c11'
(PID.TID 0000.0001)     ;
(PID.TID 0000.0001) PTRACERS_long_names = /* Tracer long name */
(PID.TID 0000.0001)               ''
(PID.TID 0000.0001)     ;
(PID.TID 0000.0001) PTRACERS_ioLabel = /* tracer IO Label */
(PID.TID 0000.0001)               '28'
(PID.TID 0000.0001)     ;
(PID.TID 0000.0001) PTRACERS_advScheme = /* Advection Scheme */
(PID.TID 0000.0001)                      33
(PID.TID 0000.0001)     ;
(PID.TID 0000.0001) PTRACERS_SOM_Advection = /* tracer uses SOM advection scheme */
(PID.TID 0000.0001)                   F
(PID.TID 0000.0001)     ;
(PID.TID 0000.0001) PTRACERS_ImplVertAdv = /* implicit vert. advection flag */
(PID.TID 0000.0001)                   F
(PID.TID 0000.0001)     ;
(PID.TID 0000.0001) PTRACERS_diffKh = /* Laplacian Diffusivity */
(PID.TID 0000.0001)                 0.000000000000000E+00
(PID.TID 0000.0001)     ;
(PID.TID 0000.0001) PTRACERS_diffK4 = /* Biharmonic Diffusivity */
(PID.TID 0000.0001)                 0.000000000000000E+00
(PID.TID 0000.0001)     ;
(PID.TID 0000.0001) PTRACERS_diffKrNr = /* Vertical Diffusivity */
(PID.TID 0000.0001)    35 @  1.000000000000000E-05              /* K =  1: 35 */
(PID.TID 0000.0001)     ;
(PID.TID 0000.0001) PTRACERS_useGMRedi = /* apply GM-Redi */
(PID.TID 0000.0001)                   F
(PID.TID 0000.0001)     ;
(PID.TID 0000.0001) PTRACERS_useDWNSLP = /* apply DOWN-SLOPE Flow */
(PID.TID 0000.0001)                   F
(PID.TID 0000.0001)     ;
(PID.TID 0000.0001) PTRACERS_useKPP = /* apply KPP scheme */
(PID.TID 0000.0001)                   F
(PID.TID 0000.0001)     ;
(PID.TID 0000.0001) PTRACERS_ref = /* Reference vertical profile */
(PID.TID 0000.0001)    35 @  0.000000000000000E+00              /* K =  1: 35 */
(PID.TID 0000.0001)     ;
(PID.TID 0000.0001) PTRACERS_EvPrRn =/* tracer conc. in Evap. & Rain */
(PID.TID 0000.0001)                 1.234567000000000E+05
(PID.TID 0000.0001)     ;
(PID.TID 0000.0001)  -----------------------------------
(PID.TID 0000.0001)  tracer number :   29
(PID.TID 0000.0001) PTRACERS_names = /* Tracer short name */
(PID.TID 0000.0001)               'c12'
(PID.TID 0000.0001)     ;
(PID.TID 0000.0001) PTRACERS_long_names = /* Tracer long name */
(PID.TID 0000.0001)               ''
(PID.TID 0000.0001)     ;
(PID.TID 0000.0001) PTRACERS_ioLabel = /* tracer IO Label */
(PID.TID 0000.0001)               '29'
(PID.TID 0000.0001)     ;
(PID.TID 0000.0001) PTRACERS_advScheme = /* Advection Scheme */
(PID.TID 0000.0001)                      33
(PID.TID 0000.0001)     ;
(PID.TID 0000.0001) PTRACERS_SOM_Advection = /* tracer uses SOM advection scheme */
(PID.TID 0000.0001)                   F
(PID.TID 0000.0001)     ;
(PID.TID 0000.0001) PTRACERS_ImplVertAdv = /* implicit vert. advection flag */
(PID.TID 0000.0001)                   F
(PID.TID 0000.0001)     ;
(PID.TID 0000.0001) PTRACERS_diffKh = /* Laplacian Diffusivity */
(PID.TID 0000.0001)                 0.000000000000000E+00
(PID.TID 0000.0001)     ;
(PID.TID 0000.0001) PTRACERS_diffK4 = /* Biharmonic Diffusivity */
(PID.TID 0000.0001)                 0.000000000000000E+00
(PID.TID 0000.0001)     ;
(PID.TID 0000.0001) PTRACERS_diffKrNr = /* Vertical Diffusivity */
(PID.TID 0000.0001)    35 @  1.000000000000000E-05              /* K =  1: 35 */
(PID.TID 0000.0001)     ;
(PID.TID 0000.0001) PTRACERS_useGMRedi = /* apply GM-Redi */
(PID.TID 0000.0001)                   F
(PID.TID 0000.0001)     ;
(PID.TID 0000.0001) PTRACERS_useDWNSLP = /* apply DOWN-SLOPE Flow */
(PID.TID 0000.0001)                   F
(PID.TID 0000.0001)     ;
(PID.TID 0000.0001) PTRACERS_useKPP = /* apply KPP scheme */
(PID.TID 0000.0001)                   F
(PID.TID 0000.0001)     ;
(PID.TID 0000.0001) PTRACERS_ref = /* Reference vertical profile */
(PID.TID 0000.0001)    35 @  0.000000000000000E+00              /* K =  1: 35 */
(PID.TID 0000.0001)     ;
(PID.TID 0000.0001) PTRACERS_EvPrRn =/* tracer conc. in Evap. & Rain */
(PID.TID 0000.0001)                 1.234567000000000E+05
(PID.TID 0000.0001)     ;
(PID.TID 0000.0001)  -----------------------------------
(PID.TID 0000.0001)  tracer number :   30
(PID.TID 0000.0001) PTRACERS_names = /* Tracer short name */
(PID.TID 0000.0001)               'c13'
(PID.TID 0000.0001)     ;
(PID.TID 0000.0001) PTRACERS_long_names = /* Tracer long name */
(PID.TID 0000.0001)               ''
(PID.TID 0000.0001)     ;
(PID.TID 0000.0001) PTRACERS_ioLabel = /* tracer IO Label */
(PID.TID 0000.0001)               '30'
(PID.TID 0000.0001)     ;
(PID.TID 0000.0001) PTRACERS_advScheme = /* Advection Scheme */
(PID.TID 0000.0001)                      33
(PID.TID 0000.0001)     ;
(PID.TID 0000.0001) PTRACERS_SOM_Advection = /* tracer uses SOM advection scheme */
(PID.TID 0000.0001)                   F
(PID.TID 0000.0001)     ;
(PID.TID 0000.0001) PTRACERS_ImplVertAdv = /* implicit vert. advection flag */
(PID.TID 0000.0001)                   F
(PID.TID 0000.0001)     ;
(PID.TID 0000.0001) PTRACERS_diffKh = /* Laplacian Diffusivity */
(PID.TID 0000.0001)                 0.000000000000000E+00
(PID.TID 0000.0001)     ;
(PID.TID 0000.0001) PTRACERS_diffK4 = /* Biharmonic Diffusivity */
(PID.TID 0000.0001)                 0.000000000000000E+00
(PID.TID 0000.0001)     ;
(PID.TID 0000.0001) PTRACERS_diffKrNr = /* Vertical Diffusivity */
(PID.TID 0000.0001)    35 @  1.000000000000000E-05              /* K =  1: 35 */
(PID.TID 0000.0001)     ;
(PID.TID 0000.0001) PTRACERS_useGMRedi = /* apply GM-Redi */
(PID.TID 0000.0001)                   F
(PID.TID 0000.0001)     ;
(PID.TID 0000.0001) PTRACERS_useDWNSLP = /* apply DOWN-SLOPE Flow */
(PID.TID 0000.0001)                   F
(PID.TID 0000.0001)     ;
(PID.TID 0000.0001) PTRACERS_useKPP = /* apply KPP scheme */
(PID.TID 0000.0001)                   F
(PID.TID 0000.0001)     ;
(PID.TID 0000.0001) PTRACERS_ref = /* Reference vertical profile */
(PID.TID 0000.0001)    35 @  0.000000000000000E+00              /* K =  1: 35 */
(PID.TID 0000.0001)     ;
(PID.TID 0000.0001) PTRACERS_EvPrRn =/* tracer conc. in Evap. & Rain */
(PID.TID 0000.0001)                 1.234567000000000E+05
(PID.TID 0000.0001)     ;
(PID.TID 0000.0001)  -----------------------------------
(PID.TID 0000.0001)  tracer number :   31
(PID.TID 0000.0001) PTRACERS_names = /* Tracer short name */
(PID.TID 0000.0001)               'c14'
(PID.TID 0000.0001)     ;
(PID.TID 0000.0001) PTRACERS_long_names = /* Tracer long name */
(PID.TID 0000.0001)               ''
(PID.TID 0000.0001)     ;
(PID.TID 0000.0001) PTRACERS_ioLabel = /* tracer IO Label */
(PID.TID 0000.0001)               '31'
(PID.TID 0000.0001)     ;
(PID.TID 0000.0001) PTRACERS_advScheme = /* Advection Scheme */
(PID.TID 0000.0001)                      33
(PID.TID 0000.0001)     ;
(PID.TID 0000.0001) PTRACERS_SOM_Advection = /* tracer uses SOM advection scheme */
(PID.TID 0000.0001)                   F
(PID.TID 0000.0001)     ;
(PID.TID 0000.0001) PTRACERS_ImplVertAdv = /* implicit vert. advection flag */
(PID.TID 0000.0001)                   F
(PID.TID 0000.0001)     ;
(PID.TID 0000.0001) PTRACERS_diffKh = /* Laplacian Diffusivity */
(PID.TID 0000.0001)                 0.000000000000000E+00
(PID.TID 0000.0001)     ;
(PID.TID 0000.0001) PTRACERS_diffK4 = /* Biharmonic Diffusivity */
(PID.TID 0000.0001)                 0.000000000000000E+00
(PID.TID 0000.0001)     ;
(PID.TID 0000.0001) PTRACERS_diffKrNr = /* Vertical Diffusivity */
(PID.TID 0000.0001)    35 @  1.000000000000000E-05              /* K =  1: 35 */
(PID.TID 0000.0001)     ;
(PID.TID 0000.0001) PTRACERS_useGMRedi = /* apply GM-Redi */
(PID.TID 0000.0001)                   F
(PID.TID 0000.0001)     ;
(PID.TID 0000.0001) PTRACERS_useDWNSLP = /* apply DOWN-SLOPE Flow */
(PID.TID 0000.0001)                   F
(PID.TID 0000.0001)     ;
(PID.TID 0000.0001) PTRACERS_useKPP = /* apply KPP scheme */
(PID.TID 0000.0001)                   F
(PID.TID 0000.0001)     ;
(PID.TID 0000.0001) PTRACERS_ref = /* Reference vertical profile */
(PID.TID 0000.0001)    35 @  0.000000000000000E+00              /* K =  1: 35 */
(PID.TID 0000.0001)     ;
(PID.TID 0000.0001) PTRACERS_EvPrRn =/* tracer conc. in Evap. & Rain */
(PID.TID 0000.0001)                 1.234567000000000E+05
(PID.TID 0000.0001)     ;
(PID.TID 0000.0001)  -----------------------------------
(PID.TID 0000.0001)  tracer number :   32
(PID.TID 0000.0001) PTRACERS_names = /* Tracer short name */
(PID.TID 0000.0001)               'c15'
(PID.TID 0000.0001)     ;
(PID.TID 0000.0001) PTRACERS_long_names = /* Tracer long name */
(PID.TID 0000.0001)               ''
(PID.TID 0000.0001)     ;
(PID.TID 0000.0001) PTRACERS_ioLabel = /* tracer IO Label */
(PID.TID 0000.0001)               '32'
(PID.TID 0000.0001)     ;
(PID.TID 0000.0001) PTRACERS_advScheme = /* Advection Scheme */
(PID.TID 0000.0001)                      33
(PID.TID 0000.0001)     ;
(PID.TID 0000.0001) PTRACERS_SOM_Advection = /* tracer uses SOM advection scheme */
(PID.TID 0000.0001)                   F
(PID.TID 0000.0001)     ;
(PID.TID 0000.0001) PTRACERS_ImplVertAdv = /* implicit vert. advection flag */
(PID.TID 0000.0001)                   F
(PID.TID 0000.0001)     ;
(PID.TID 0000.0001) PTRACERS_diffKh = /* Laplacian Diffusivity */
(PID.TID 0000.0001)                 0.000000000000000E+00
(PID.TID 0000.0001)     ;
(PID.TID 0000.0001) PTRACERS_diffK4 = /* Biharmonic Diffusivity */
(PID.TID 0000.0001)                 0.000000000000000E+00
(PID.TID 0000.0001)     ;
(PID.TID 0000.0001) PTRACERS_diffKrNr = /* Vertical Diffusivity */
(PID.TID 0000.0001)    35 @  1.000000000000000E-05              /* K =  1: 35 */
(PID.TID 0000.0001)     ;
(PID.TID 0000.0001) PTRACERS_useGMRedi = /* apply GM-Redi */
(PID.TID 0000.0001)                   F
(PID.TID 0000.0001)     ;
(PID.TID 0000.0001) PTRACERS_useDWNSLP = /* apply DOWN-SLOPE Flow */
(PID.TID 0000.0001)                   F
(PID.TID 0000.0001)     ;
(PID.TID 0000.0001) PTRACERS_useKPP = /* apply KPP scheme */
(PID.TID 0000.0001)                   F
(PID.TID 0000.0001)     ;
(PID.TID 0000.0001) PTRACERS_ref = /* Reference vertical profile */
(PID.TID 0000.0001)    35 @  0.000000000000000E+00              /* K =  1: 35 */
(PID.TID 0000.0001)     ;
(PID.TID 0000.0001) PTRACERS_EvPrRn =/* tracer conc. in Evap. & Rain */
(PID.TID 0000.0001)                 1.234567000000000E+05
(PID.TID 0000.0001)     ;
(PID.TID 0000.0001)  -----------------------------------
(PID.TID 0000.0001)  tracer number :   33
(PID.TID 0000.0001) PTRACERS_names = /* Tracer short name */
(PID.TID 0000.0001)               'c16'
(PID.TID 0000.0001)     ;
(PID.TID 0000.0001) PTRACERS_long_names = /* Tracer long name */
(PID.TID 0000.0001)               ''
(PID.TID 0000.0001)     ;
(PID.TID 0000.0001) PTRACERS_ioLabel = /* tracer IO Label */
(PID.TID 0000.0001)               '33'
(PID.TID 0000.0001)     ;
(PID.TID 0000.0001) PTRACERS_advScheme = /* Advection Scheme */
(PID.TID 0000.0001)                      33
(PID.TID 0000.0001)     ;
(PID.TID 0000.0001) PTRACERS_SOM_Advection = /* tracer uses SOM advection scheme */
(PID.TID 0000.0001)                   F
(PID.TID 0000.0001)     ;
(PID.TID 0000.0001) PTRACERS_ImplVertAdv = /* implicit vert. advection flag */
(PID.TID 0000.0001)                   F
(PID.TID 0000.0001)     ;
(PID.TID 0000.0001) PTRACERS_diffKh = /* Laplacian Diffusivity */
(PID.TID 0000.0001)                 0.000000000000000E+00
(PID.TID 0000.0001)     ;
(PID.TID 0000.0001) PTRACERS_diffK4 = /* Biharmonic Diffusivity */
(PID.TID 0000.0001)                 0.000000000000000E+00
(PID.TID 0000.0001)     ;
(PID.TID 0000.0001) PTRACERS_diffKrNr = /* Vertical Diffusivity */
(PID.TID 0000.0001)    35 @  1.000000000000000E-05              /* K =  1: 35 */
(PID.TID 0000.0001)     ;
(PID.TID 0000.0001) PTRACERS_useGMRedi = /* apply GM-Redi */
(PID.TID 0000.0001)                   F
(PID.TID 0000.0001)     ;
(PID.TID 0000.0001) PTRACERS_useDWNSLP = /* apply DOWN-SLOPE Flow */
(PID.TID 0000.0001)                   F
(PID.TID 0000.0001)     ;
(PID.TID 0000.0001) PTRACERS_useKPP = /* apply KPP scheme */
(PID.TID 0000.0001)                   F
(PID.TID 0000.0001)     ;
(PID.TID 0000.0001) PTRACERS_ref = /* Reference vertical profile */
(PID.TID 0000.0001)    35 @  0.000000000000000E+00              /* K =  1: 35 */
(PID.TID 0000.0001)     ;
(PID.TID 0000.0001) PTRACERS_EvPrRn =/* tracer conc. in Evap. & Rain */
(PID.TID 0000.0001)                 1.234567000000000E+05
(PID.TID 0000.0001)     ;
(PID.TID 0000.0001)  -----------------------------------
(PID.TID 0000.0001)  tracer number :   34
(PID.TID 0000.0001) PTRACERS_names = /* Tracer short name */
(PID.TID 0000.0001)               'c17'
(PID.TID 0000.0001)     ;
(PID.TID 0000.0001) PTRACERS_long_names = /* Tracer long name */
(PID.TID 0000.0001)               ''
(PID.TID 0000.0001)     ;
(PID.TID 0000.0001) PTRACERS_ioLabel = /* tracer IO Label */
(PID.TID 0000.0001)               '34'
(PID.TID 0000.0001)     ;
(PID.TID 0000.0001) PTRACERS_advScheme = /* Advection Scheme */
(PID.TID 0000.0001)                      33
(PID.TID 0000.0001)     ;
(PID.TID 0000.0001) PTRACERS_SOM_Advection = /* tracer uses SOM advection scheme */
(PID.TID 0000.0001)                   F
(PID.TID 0000.0001)     ;
(PID.TID 0000.0001) PTRACERS_ImplVertAdv = /* implicit vert. advection flag */
(PID.TID 0000.0001)                   F
(PID.TID 0000.0001)     ;
(PID.TID 0000.0001) PTRACERS_diffKh = /* Laplacian Diffusivity */
(PID.TID 0000.0001)                 0.000000000000000E+00
(PID.TID 0000.0001)     ;
(PID.TID 0000.0001) PTRACERS_diffK4 = /* Biharmonic Diffusivity */
(PID.TID 0000.0001)                 0.000000000000000E+00
(PID.TID 0000.0001)     ;
(PID.TID 0000.0001) PTRACERS_diffKrNr = /* Vertical Diffusivity */
(PID.TID 0000.0001)    35 @  1.000000000000000E-05              /* K =  1: 35 */
(PID.TID 0000.0001)     ;
(PID.TID 0000.0001) PTRACERS_useGMRedi = /* apply GM-Redi */
(PID.TID 0000.0001)                   F
(PID.TID 0000.0001)     ;
(PID.TID 0000.0001) PTRACERS_useDWNSLP = /* apply DOWN-SLOPE Flow */
(PID.TID 0000.0001)                   F
(PID.TID 0000.0001)     ;
(PID.TID 0000.0001) PTRACERS_useKPP = /* apply KPP scheme */
(PID.TID 0000.0001)                   F
(PID.TID 0000.0001)     ;
(PID.TID 0000.0001) PTRACERS_ref = /* Reference vertical profile */
(PID.TID 0000.0001)    35 @  0.000000000000000E+00              /* K =  1: 35 */
(PID.TID 0000.0001)     ;
(PID.TID 0000.0001) PTRACERS_EvPrRn =/* tracer conc. in Evap. & Rain */
(PID.TID 0000.0001)                 1.234567000000000E+05
(PID.TID 0000.0001)     ;
(PID.TID 0000.0001)  -----------------------------------
(PID.TID 0000.0001)  tracer number :   35
(PID.TID 0000.0001) PTRACERS_names = /* Tracer short name */
(PID.TID 0000.0001)               'c18'
(PID.TID 0000.0001)     ;
(PID.TID 0000.0001) PTRACERS_long_names = /* Tracer long name */
(PID.TID 0000.0001)               ''
(PID.TID 0000.0001)     ;
(PID.TID 0000.0001) PTRACERS_ioLabel = /* tracer IO Label */
(PID.TID 0000.0001)               '35'
(PID.TID 0000.0001)     ;
(PID.TID 0000.0001) PTRACERS_advScheme = /* Advection Scheme */
(PID.TID 0000.0001)                      33
(PID.TID 0000.0001)     ;
(PID.TID 0000.0001) PTRACERS_SOM_Advection = /* tracer uses SOM advection scheme */
(PID.TID 0000.0001)                   F
(PID.TID 0000.0001)     ;
(PID.TID 0000.0001) PTRACERS_ImplVertAdv = /* implicit vert. advection flag */
(PID.TID 0000.0001)                   F
(PID.TID 0000.0001)     ;
(PID.TID 0000.0001) PTRACERS_diffKh = /* Laplacian Diffusivity */
(PID.TID 0000.0001)                 0.000000000000000E+00
(PID.TID 0000.0001)     ;
(PID.TID 0000.0001) PTRACERS_diffK4 = /* Biharmonic Diffusivity */
(PID.TID 0000.0001)                 0.000000000000000E+00
(PID.TID 0000.0001)     ;
(PID.TID 0000.0001) PTRACERS_diffKrNr = /* Vertical Diffusivity */
(PID.TID 0000.0001)    35 @  1.000000000000000E-05              /* K =  1: 35 */
(PID.TID 0000.0001)     ;
(PID.TID 0000.0001) PTRACERS_useGMRedi = /* apply GM-Redi */
(PID.TID 0000.0001)                   F
(PID.TID 0000.0001)     ;
(PID.TID 0000.0001) PTRACERS_useDWNSLP = /* apply DOWN-SLOPE Flow */
(PID.TID 0000.0001)                   F
(PID.TID 0000.0001)     ;
(PID.TID 0000.0001) PTRACERS_useKPP = /* apply KPP scheme */
(PID.TID 0000.0001)                   F
(PID.TID 0000.0001)     ;
(PID.TID 0000.0001) PTRACERS_ref = /* Reference vertical profile */
(PID.TID 0000.0001)    35 @  0.000000000000000E+00              /* K =  1: 35 */
(PID.TID 0000.0001)     ;
(PID.TID 0000.0001) PTRACERS_EvPrRn =/* tracer conc. in Evap. & Rain */
(PID.TID 0000.0001)                 1.234567000000000E+05
(PID.TID 0000.0001)     ;
(PID.TID 0000.0001)  -----------------------------------
(PID.TID 0000.0001)  tracer number :   36
(PID.TID 0000.0001) PTRACERS_names = /* Tracer short name */
(PID.TID 0000.0001)               'c19'
(PID.TID 0000.0001)     ;
(PID.TID 0000.0001) PTRACERS_long_names = /* Tracer long name */
(PID.TID 0000.0001)               ''
(PID.TID 0000.0001)     ;
(PID.TID 0000.0001) PTRACERS_ioLabel = /* tracer IO Label */
(PID.TID 0000.0001)               '36'
(PID.TID 0000.0001)     ;
(PID.TID 0000.0001) PTRACERS_advScheme = /* Advection Scheme */
(PID.TID 0000.0001)                      33
(PID.TID 0000.0001)     ;
(PID.TID 0000.0001) PTRACERS_SOM_Advection = /* tracer uses SOM advection scheme */
(PID.TID 0000.0001)                   F
(PID.TID 0000.0001)     ;
(PID.TID 0000.0001) PTRACERS_ImplVertAdv = /* implicit vert. advection flag */
(PID.TID 0000.0001)                   F
(PID.TID 0000.0001)     ;
(PID.TID 0000.0001) PTRACERS_diffKh = /* Laplacian Diffusivity */
(PID.TID 0000.0001)                 0.000000000000000E+00
(PID.TID 0000.0001)     ;
(PID.TID 0000.0001) PTRACERS_diffK4 = /* Biharmonic Diffusivity */
(PID.TID 0000.0001)                 0.000000000000000E+00
(PID.TID 0000.0001)     ;
(PID.TID 0000.0001) PTRACERS_diffKrNr = /* Vertical Diffusivity */
(PID.TID 0000.0001)    35 @  1.000000000000000E-05              /* K =  1: 35 */
(PID.TID 0000.0001)     ;
(PID.TID 0000.0001) PTRACERS_useGMRedi = /* apply GM-Redi */
(PID.TID 0000.0001)                   F
(PID.TID 0000.0001)     ;
(PID.TID 0000.0001) PTRACERS_useDWNSLP = /* apply DOWN-SLOPE Flow */
(PID.TID 0000.0001)                   F
(PID.TID 0000.0001)     ;
(PID.TID 0000.0001) PTRACERS_useKPP = /* apply KPP scheme */
(PID.TID 0000.0001)                   F
(PID.TID 0000.0001)     ;
(PID.TID 0000.0001) PTRACERS_ref = /* Reference vertical profile */
(PID.TID 0000.0001)    35 @  0.000000000000000E+00              /* K =  1: 35 */
(PID.TID 0000.0001)     ;
(PID.TID 0000.0001) PTRACERS_EvPrRn =/* tracer conc. in Evap. & Rain */
(PID.TID 0000.0001)                 1.234567000000000E+05
(PID.TID 0000.0001)     ;
(PID.TID 0000.0001)  -----------------------------------
(PID.TID 0000.0001)  tracer number :   37
(PID.TID 0000.0001) PTRACERS_names = /* Tracer short name */
(PID.TID 0000.0001)               'c20'
(PID.TID 0000.0001)     ;
(PID.TID 0000.0001) PTRACERS_long_names = /* Tracer long name */
(PID.TID 0000.0001)               ''
(PID.TID 0000.0001)     ;
(PID.TID 0000.0001) PTRACERS_ioLabel = /* tracer IO Label */
(PID.TID 0000.0001)               '37'
(PID.TID 0000.0001)     ;
(PID.TID 0000.0001) PTRACERS_advScheme = /* Advection Scheme */
(PID.TID 0000.0001)                      33
(PID.TID 0000.0001)     ;
(PID.TID 0000.0001) PTRACERS_SOM_Advection = /* tracer uses SOM advection scheme */
(PID.TID 0000.0001)                   F
(PID.TID 0000.0001)     ;
(PID.TID 0000.0001) PTRACERS_ImplVertAdv = /* implicit vert. advection flag */
(PID.TID 0000.0001)                   F
(PID.TID 0000.0001)     ;
(PID.TID 0000.0001) PTRACERS_diffKh = /* Laplacian Diffusivity */
(PID.TID 0000.0001)                 0.000000000000000E+00
(PID.TID 0000.0001)     ;
(PID.TID 0000.0001) PTRACERS_diffK4 = /* Biharmonic Diffusivity */
(PID.TID 0000.0001)                 0.000000000000000E+00
(PID.TID 0000.0001)     ;
(PID.TID 0000.0001) PTRACERS_diffKrNr = /* Vertical Diffusivity */
(PID.TID 0000.0001)    35 @  1.000000000000000E-05              /* K =  1: 35 */
(PID.TID 0000.0001)     ;
(PID.TID 0000.0001) PTRACERS_useGMRedi = /* apply GM-Redi */
(PID.TID 0000.0001)                   F
(PID.TID 0000.0001)     ;
(PID.TID 0000.0001) PTRACERS_useDWNSLP = /* apply DOWN-SLOPE Flow */
(PID.TID 0000.0001)                   F
(PID.TID 0000.0001)     ;
(PID.TID 0000.0001) PTRACERS_useKPP = /* apply KPP scheme */
(PID.TID 0000.0001)                   F
(PID.TID 0000.0001)     ;
(PID.TID 0000.0001) PTRACERS_ref = /* Reference vertical profile */
(PID.TID 0000.0001)    35 @  0.000000000000000E+00              /* K =  1: 35 */
(PID.TID 0000.0001)     ;
(PID.TID 0000.0001) PTRACERS_EvPrRn =/* tracer conc. in Evap. & Rain */
(PID.TID 0000.0001)                 1.234567000000000E+05
(PID.TID 0000.0001)     ;
(PID.TID 0000.0001)  -----------------------------------
(PID.TID 0000.0001)  tracer number :   38
(PID.TID 0000.0001) PTRACERS_names = /* Tracer short name */
(PID.TID 0000.0001)               'c21'
(PID.TID 0000.0001)     ;
(PID.TID 0000.0001) PTRACERS_long_names = /* Tracer long name */
(PID.TID 0000.0001)               ''
(PID.TID 0000.0001)     ;
(PID.TID 0000.0001) PTRACERS_ioLabel = /* tracer IO Label */
(PID.TID 0000.0001)               '38'
(PID.TID 0000.0001)     ;
(PID.TID 0000.0001) PTRACERS_advScheme = /* Advection Scheme */
(PID.TID 0000.0001)                      33
(PID.TID 0000.0001)     ;
(PID.TID 0000.0001) PTRACERS_SOM_Advection = /* tracer uses SOM advection scheme */
(PID.TID 0000.0001)                   F
(PID.TID 0000.0001)     ;
(PID.TID 0000.0001) PTRACERS_ImplVertAdv = /* implicit vert. advection flag */
(PID.TID 0000.0001)                   F
(PID.TID 0000.0001)     ;
(PID.TID 0000.0001) PTRACERS_diffKh = /* Laplacian Diffusivity */
(PID.TID 0000.0001)                 0.000000000000000E+00
(PID.TID 0000.0001)     ;
(PID.TID 0000.0001) PTRACERS_diffK4 = /* Biharmonic Diffusivity */
(PID.TID 0000.0001)                 0.000000000000000E+00
(PID.TID 0000.0001)     ;
(PID.TID 0000.0001) PTRACERS_diffKrNr = /* Vertical Diffusivity */
(PID.TID 0000.0001)    35 @  1.000000000000000E-05              /* K =  1: 35 */
(PID.TID 0000.0001)     ;
(PID.TID 0000.0001) PTRACERS_useGMRedi = /* apply GM-Redi */
(PID.TID 0000.0001)                   F
(PID.TID 0000.0001)     ;
(PID.TID 0000.0001) PTRACERS_useDWNSLP = /* apply DOWN-SLOPE Flow */
(PID.TID 0000.0001)                   F
(PID.TID 0000.0001)     ;
(PID.TID 0000.0001) PTRACERS_useKPP = /* apply KPP scheme */
(PID.TID 0000.0001)                   F
(PID.TID 0000.0001)     ;
(PID.TID 0000.0001) PTRACERS_ref = /* Reference vertical profile */
(PID.TID 0000.0001)    35 @  0.000000000000000E+00              /* K =  1: 35 */
(PID.TID 0000.0001)     ;
(PID.TID 0000.0001) PTRACERS_EvPrRn =/* tracer conc. in Evap. & Rain */
(PID.TID 0000.0001)                 1.234567000000000E+05
(PID.TID 0000.0001)     ;
(PID.TID 0000.0001)  -----------------------------------
(PID.TID 0000.0001)  tracer number :   39
(PID.TID 0000.0001) PTRACERS_names = /* Tracer short name */
(PID.TID 0000.0001)               'c22'
(PID.TID 0000.0001)     ;
(PID.TID 0000.0001) PTRACERS_long_names = /* Tracer long name */
(PID.TID 0000.0001)               ''
(PID.TID 0000.0001)     ;
(PID.TID 0000.0001) PTRACERS_ioLabel = /* tracer IO Label */
(PID.TID 0000.0001)               '39'
(PID.TID 0000.0001)     ;
(PID.TID 0000.0001) PTRACERS_advScheme = /* Advection Scheme */
(PID.TID 0000.0001)                      33
(PID.TID 0000.0001)     ;
(PID.TID 0000.0001) PTRACERS_SOM_Advection = /* tracer uses SOM advection scheme */
(PID.TID 0000.0001)                   F
(PID.TID 0000.0001)     ;
(PID.TID 0000.0001) PTRACERS_ImplVertAdv = /* implicit vert. advection flag */
(PID.TID 0000.0001)                   F
(PID.TID 0000.0001)     ;
(PID.TID 0000.0001) PTRACERS_diffKh = /* Laplacian Diffusivity */
(PID.TID 0000.0001)                 0.000000000000000E+00
(PID.TID 0000.0001)     ;
(PID.TID 0000.0001) PTRACERS_diffK4 = /* Biharmonic Diffusivity */
(PID.TID 0000.0001)                 0.000000000000000E+00
(PID.TID 0000.0001)     ;
(PID.TID 0000.0001) PTRACERS_diffKrNr = /* Vertical Diffusivity */
(PID.TID 0000.0001)    35 @  1.000000000000000E-05              /* K =  1: 35 */
(PID.TID 0000.0001)     ;
(PID.TID 0000.0001) PTRACERS_useGMRedi = /* apply GM-Redi */
(PID.TID 0000.0001)                   F
(PID.TID 0000.0001)     ;
(PID.TID 0000.0001) PTRACERS_useDWNSLP = /* apply DOWN-SLOPE Flow */
(PID.TID 0000.0001)                   F
(PID.TID 0000.0001)     ;
(PID.TID 0000.0001) PTRACERS_useKPP = /* apply KPP scheme */
(PID.TID 0000.0001)                   F
(PID.TID 0000.0001)     ;
(PID.TID 0000.0001) PTRACERS_ref = /* Reference vertical profile */
(PID.TID 0000.0001)    35 @  0.000000000000000E+00              /* K =  1: 35 */
(PID.TID 0000.0001)     ;
(PID.TID 0000.0001) PTRACERS_EvPrRn =/* tracer conc. in Evap. & Rain */
(PID.TID 0000.0001)                 1.234567000000000E+05
(PID.TID 0000.0001)     ;
(PID.TID 0000.0001)  -----------------------------------
(PID.TID 0000.0001)  tracer number :   40
(PID.TID 0000.0001) PTRACERS_names = /* Tracer short name */
(PID.TID 0000.0001)               'c23'
(PID.TID 0000.0001)     ;
(PID.TID 0000.0001) PTRACERS_long_names = /* Tracer long name */
(PID.TID 0000.0001)               ''
(PID.TID 0000.0001)     ;
(PID.TID 0000.0001) PTRACERS_ioLabel = /* tracer IO Label */
(PID.TID 0000.0001)               '40'
(PID.TID 0000.0001)     ;
(PID.TID 0000.0001) PTRACERS_advScheme = /* Advection Scheme */
(PID.TID 0000.0001)                      33
(PID.TID 0000.0001)     ;
(PID.TID 0000.0001) PTRACERS_SOM_Advection = /* tracer uses SOM advection scheme */
(PID.TID 0000.0001)                   F
(PID.TID 0000.0001)     ;
(PID.TID 0000.0001) PTRACERS_ImplVertAdv = /* implicit vert. advection flag */
(PID.TID 0000.0001)                   F
(PID.TID 0000.0001)     ;
(PID.TID 0000.0001) PTRACERS_diffKh = /* Laplacian Diffusivity */
(PID.TID 0000.0001)                 0.000000000000000E+00
(PID.TID 0000.0001)     ;
(PID.TID 0000.0001) PTRACERS_diffK4 = /* Biharmonic Diffusivity */
(PID.TID 0000.0001)                 0.000000000000000E+00
(PID.TID 0000.0001)     ;
(PID.TID 0000.0001) PTRACERS_diffKrNr = /* Vertical Diffusivity */
(PID.TID 0000.0001)    35 @  1.000000000000000E-05              /* K =  1: 35 */
(PID.TID 0000.0001)     ;
(PID.TID 0000.0001) PTRACERS_useGMRedi = /* apply GM-Redi */
(PID.TID 0000.0001)                   F
(PID.TID 0000.0001)     ;
(PID.TID 0000.0001) PTRACERS_useDWNSLP = /* apply DOWN-SLOPE Flow */
(PID.TID 0000.0001)                   F
(PID.TID 0000.0001)     ;
(PID.TID 0000.0001) PTRACERS_useKPP = /* apply KPP scheme */
(PID.TID 0000.0001)                   F
(PID.TID 0000.0001)     ;
(PID.TID 0000.0001) PTRACERS_ref = /* Reference vertical profile */
(PID.TID 0000.0001)    35 @  0.000000000000000E+00              /* K =  1: 35 */
(PID.TID 0000.0001)     ;
(PID.TID 0000.0001) PTRACERS_EvPrRn =/* tracer conc. in Evap. & Rain */
(PID.TID 0000.0001)                 1.234567000000000E+05
(PID.TID 0000.0001)     ;
(PID.TID 0000.0001)  -----------------------------------
(PID.TID 0000.0001)  tracer number :   41
(PID.TID 0000.0001) PTRACERS_names = /* Tracer short name */
(PID.TID 0000.0001)               'c24'
(PID.TID 0000.0001)     ;
(PID.TID 0000.0001) PTRACERS_long_names = /* Tracer long name */
(PID.TID 0000.0001)               ''
(PID.TID 0000.0001)     ;
(PID.TID 0000.0001) PTRACERS_ioLabel = /* tracer IO Label */
(PID.TID 0000.0001)               '41'
(PID.TID 0000.0001)     ;
(PID.TID 0000.0001) PTRACERS_advScheme = /* Advection Scheme */
(PID.TID 0000.0001)                      33
(PID.TID 0000.0001)     ;
(PID.TID 0000.0001) PTRACERS_SOM_Advection = /* tracer uses SOM advection scheme */
(PID.TID 0000.0001)                   F
(PID.TID 0000.0001)     ;
(PID.TID 0000.0001) PTRACERS_ImplVertAdv = /* implicit vert. advection flag */
(PID.TID 0000.0001)                   F
(PID.TID 0000.0001)     ;
(PID.TID 0000.0001) PTRACERS_diffKh = /* Laplacian Diffusivity */
(PID.TID 0000.0001)                 0.000000000000000E+00
(PID.TID 0000.0001)     ;
(PID.TID 0000.0001) PTRACERS_diffK4 = /* Biharmonic Diffusivity */
(PID.TID 0000.0001)                 0.000000000000000E+00
(PID.TID 0000.0001)     ;
(PID.TID 0000.0001) PTRACERS_diffKrNr = /* Vertical Diffusivity */
(PID.TID 0000.0001)    35 @  1.000000000000000E-05              /* K =  1: 35 */
(PID.TID 0000.0001)     ;
(PID.TID 0000.0001) PTRACERS_useGMRedi = /* apply GM-Redi */
(PID.TID 0000.0001)                   F
(PID.TID 0000.0001)     ;
(PID.TID 0000.0001) PTRACERS_useDWNSLP = /* apply DOWN-SLOPE Flow */
(PID.TID 0000.0001)                   F
(PID.TID 0000.0001)     ;
(PID.TID 0000.0001) PTRACERS_useKPP = /* apply KPP scheme */
(PID.TID 0000.0001)                   F
(PID.TID 0000.0001)     ;
(PID.TID 0000.0001) PTRACERS_ref = /* Reference vertical profile */
(PID.TID 0000.0001)    35 @  0.000000000000000E+00              /* K =  1: 35 */
(PID.TID 0000.0001)     ;
(PID.TID 0000.0001) PTRACERS_EvPrRn =/* tracer conc. in Evap. & Rain */
(PID.TID 0000.0001)                 1.234567000000000E+05
(PID.TID 0000.0001)     ;
(PID.TID 0000.0001)  -----------------------------------
(PID.TID 0000.0001)  tracer number :   42
(PID.TID 0000.0001) PTRACERS_names = /* Tracer short name */
(PID.TID 0000.0001)               'c25'
(PID.TID 0000.0001)     ;
(PID.TID 0000.0001) PTRACERS_long_names = /* Tracer long name */
(PID.TID 0000.0001)               ''
(PID.TID 0000.0001)     ;
(PID.TID 0000.0001) PTRACERS_ioLabel = /* tracer IO Label */
(PID.TID 0000.0001)               '42'
(PID.TID 0000.0001)     ;
(PID.TID 0000.0001) PTRACERS_advScheme = /* Advection Scheme */
(PID.TID 0000.0001)                      33
(PID.TID 0000.0001)     ;
(PID.TID 0000.0001) PTRACERS_SOM_Advection = /* tracer uses SOM advection scheme */
(PID.TID 0000.0001)                   F
(PID.TID 0000.0001)     ;
(PID.TID 0000.0001) PTRACERS_ImplVertAdv = /* implicit vert. advection flag */
(PID.TID 0000.0001)                   F
(PID.TID 0000.0001)     ;
(PID.TID 0000.0001) PTRACERS_diffKh = /* Laplacian Diffusivity */
(PID.TID 0000.0001)                 0.000000000000000E+00
(PID.TID 0000.0001)     ;
(PID.TID 0000.0001) PTRACERS_diffK4 = /* Biharmonic Diffusivity */
(PID.TID 0000.0001)                 0.000000000000000E+00
(PID.TID 0000.0001)     ;
(PID.TID 0000.0001) PTRACERS_diffKrNr = /* Vertical Diffusivity */
(PID.TID 0000.0001)    35 @  1.000000000000000E-05              /* K =  1: 35 */
(PID.TID 0000.0001)     ;
(PID.TID 0000.0001) PTRACERS_useGMRedi = /* apply GM-Redi */
(PID.TID 0000.0001)                   F
(PID.TID 0000.0001)     ;
(PID.TID 0000.0001) PTRACERS_useDWNSLP = /* apply DOWN-SLOPE Flow */
(PID.TID 0000.0001)                   F
(PID.TID 0000.0001)     ;
(PID.TID 0000.0001) PTRACERS_useKPP = /* apply KPP scheme */
(PID.TID 0000.0001)                   F
(PID.TID 0000.0001)     ;
(PID.TID 0000.0001) PTRACERS_ref = /* Reference vertical profile */
(PID.TID 0000.0001)    35 @  0.000000000000000E+00              /* K =  1: 35 */
(PID.TID 0000.0001)     ;
(PID.TID 0000.0001) PTRACERS_EvPrRn =/* tracer conc. in Evap. & Rain */
(PID.TID 0000.0001)                 1.234567000000000E+05
(PID.TID 0000.0001)     ;
(PID.TID 0000.0001)  -----------------------------------
(PID.TID 0000.0001)  tracer number :   43
(PID.TID 0000.0001) PTRACERS_names = /* Tracer short name */
(PID.TID 0000.0001)               'c26'
(PID.TID 0000.0001)     ;
(PID.TID 0000.0001) PTRACERS_long_names = /* Tracer long name */
(PID.TID 0000.0001)               ''
(PID.TID 0000.0001)     ;
(PID.TID 0000.0001) PTRACERS_ioLabel = /* tracer IO Label */
(PID.TID 0000.0001)               '43'
(PID.TID 0000.0001)     ;
(PID.TID 0000.0001) PTRACERS_advScheme = /* Advection Scheme */
(PID.TID 0000.0001)                      33
(PID.TID 0000.0001)     ;
(PID.TID 0000.0001) PTRACERS_SOM_Advection = /* tracer uses SOM advection scheme */
(PID.TID 0000.0001)                   F
(PID.TID 0000.0001)     ;
(PID.TID 0000.0001) PTRACERS_ImplVertAdv = /* implicit vert. advection flag */
(PID.TID 0000.0001)                   F
(PID.TID 0000.0001)     ;
(PID.TID 0000.0001) PTRACERS_diffKh = /* Laplacian Diffusivity */
(PID.TID 0000.0001)                 0.000000000000000E+00
(PID.TID 0000.0001)     ;
(PID.TID 0000.0001) PTRACERS_diffK4 = /* Biharmonic Diffusivity */
(PID.TID 0000.0001)                 0.000000000000000E+00
(PID.TID 0000.0001)     ;
(PID.TID 0000.0001) PTRACERS_diffKrNr = /* Vertical Diffusivity */
(PID.TID 0000.0001)    35 @  1.000000000000000E-05              /* K =  1: 35 */
(PID.TID 0000.0001)     ;
(PID.TID 0000.0001) PTRACERS_useGMRedi = /* apply GM-Redi */
(PID.TID 0000.0001)                   F
(PID.TID 0000.0001)     ;
(PID.TID 0000.0001) PTRACERS_useDWNSLP = /* apply DOWN-SLOPE Flow */
(PID.TID 0000.0001)                   F
(PID.TID 0000.0001)     ;
(PID.TID 0000.0001) PTRACERS_useKPP = /* apply KPP scheme */
(PID.TID 0000.0001)                   F
(PID.TID 0000.0001)     ;
(PID.TID 0000.0001) PTRACERS_ref = /* Reference vertical profile */
(PID.TID 0000.0001)    35 @  0.000000000000000E+00              /* K =  1: 35 */
(PID.TID 0000.0001)     ;
(PID.TID 0000.0001) PTRACERS_EvPrRn =/* tracer conc. in Evap. & Rain */
(PID.TID 0000.0001)                 1.234567000000000E+05
(PID.TID 0000.0001)     ;
(PID.TID 0000.0001)  -----------------------------------
(PID.TID 0000.0001)  tracer number :   44
(PID.TID 0000.0001) PTRACERS_names = /* Tracer short name */
(PID.TID 0000.0001)               'c27'
(PID.TID 0000.0001)     ;
(PID.TID 0000.0001) PTRACERS_long_names = /* Tracer long name */
(PID.TID 0000.0001)               ''
(PID.TID 0000.0001)     ;
(PID.TID 0000.0001) PTRACERS_ioLabel = /* tracer IO Label */
(PID.TID 0000.0001)               '44'
(PID.TID 0000.0001)     ;
(PID.TID 0000.0001) PTRACERS_advScheme = /* Advection Scheme */
(PID.TID 0000.0001)                      33
(PID.TID 0000.0001)     ;
(PID.TID 0000.0001) PTRACERS_SOM_Advection = /* tracer uses SOM advection scheme */
(PID.TID 0000.0001)                   F
(PID.TID 0000.0001)     ;
(PID.TID 0000.0001) PTRACERS_ImplVertAdv = /* implicit vert. advection flag */
(PID.TID 0000.0001)                   F
(PID.TID 0000.0001)     ;
(PID.TID 0000.0001) PTRACERS_diffKh = /* Laplacian Diffusivity */
(PID.TID 0000.0001)                 0.000000000000000E+00
(PID.TID 0000.0001)     ;
(PID.TID 0000.0001) PTRACERS_diffK4 = /* Biharmonic Diffusivity */
(PID.TID 0000.0001)                 0.000000000000000E+00
(PID.TID 0000.0001)     ;
(PID.TID 0000.0001) PTRACERS_diffKrNr = /* Vertical Diffusivity */
(PID.TID 0000.0001)    35 @  1.000000000000000E-05              /* K =  1: 35 */
(PID.TID 0000.0001)     ;
(PID.TID 0000.0001) PTRACERS_useGMRedi = /* apply GM-Redi */
(PID.TID 0000.0001)                   F
(PID.TID 0000.0001)     ;
(PID.TID 0000.0001) PTRACERS_useDWNSLP = /* apply DOWN-SLOPE Flow */
(PID.TID 0000.0001)                   F
(PID.TID 0000.0001)     ;
(PID.TID 0000.0001) PTRACERS_useKPP = /* apply KPP scheme */
(PID.TID 0000.0001)                   F
(PID.TID 0000.0001)     ;
(PID.TID 0000.0001) PTRACERS_ref = /* Reference vertical profile */
(PID.TID 0000.0001)    35 @  0.000000000000000E+00              /* K =  1: 35 */
(PID.TID 0000.0001)     ;
(PID.TID 0000.0001) PTRACERS_EvPrRn =/* tracer conc. in Evap. & Rain */
(PID.TID 0000.0001)                 1.234567000000000E+05
(PID.TID 0000.0001)     ;
(PID.TID 0000.0001)  -----------------------------------
(PID.TID 0000.0001)  tracer number :   45
(PID.TID 0000.0001) PTRACERS_names = /* Tracer short name */
(PID.TID 0000.0001)               'c28'
(PID.TID 0000.0001)     ;
(PID.TID 0000.0001) PTRACERS_long_names = /* Tracer long name */
(PID.TID 0000.0001)               ''
(PID.TID 0000.0001)     ;
(PID.TID 0000.0001) PTRACERS_ioLabel = /* tracer IO Label */
(PID.TID 0000.0001)               '45'
(PID.TID 0000.0001)     ;
(PID.TID 0000.0001) PTRACERS_advScheme = /* Advection Scheme */
(PID.TID 0000.0001)                      33
(PID.TID 0000.0001)     ;
(PID.TID 0000.0001) PTRACERS_SOM_Advection = /* tracer uses SOM advection scheme */
(PID.TID 0000.0001)                   F
(PID.TID 0000.0001)     ;
(PID.TID 0000.0001) PTRACERS_ImplVertAdv = /* implicit vert. advection flag */
(PID.TID 0000.0001)                   F
(PID.TID 0000.0001)     ;
(PID.TID 0000.0001) PTRACERS_diffKh = /* Laplacian Diffusivity */
(PID.TID 0000.0001)                 0.000000000000000E+00
(PID.TID 0000.0001)     ;
(PID.TID 0000.0001) PTRACERS_diffK4 = /* Biharmonic Diffusivity */
(PID.TID 0000.0001)                 0.000000000000000E+00
(PID.TID 0000.0001)     ;
(PID.TID 0000.0001) PTRACERS_diffKrNr = /* Vertical Diffusivity */
(PID.TID 0000.0001)    35 @  1.000000000000000E-05              /* K =  1: 35 */
(PID.TID 0000.0001)     ;
(PID.TID 0000.0001) PTRACERS_useGMRedi = /* apply GM-Redi */
(PID.TID 0000.0001)                   F
(PID.TID 0000.0001)     ;
(PID.TID 0000.0001) PTRACERS_useDWNSLP = /* apply DOWN-SLOPE Flow */
(PID.TID 0000.0001)                   F
(PID.TID 0000.0001)     ;
(PID.TID 0000.0001) PTRACERS_useKPP = /* apply KPP scheme */
(PID.TID 0000.0001)                   F
(PID.TID 0000.0001)     ;
(PID.TID 0000.0001) PTRACERS_ref = /* Reference vertical profile */
(PID.TID 0000.0001)    35 @  0.000000000000000E+00              /* K =  1: 35 */
(PID.TID 0000.0001)     ;
(PID.TID 0000.0001) PTRACERS_EvPrRn =/* tracer conc. in Evap. & Rain */
(PID.TID 0000.0001)                 1.234567000000000E+05
(PID.TID 0000.0001)     ;
(PID.TID 0000.0001)  -----------------------------------
(PID.TID 0000.0001)  tracer number :   46
(PID.TID 0000.0001) PTRACERS_names = /* Tracer short name */
(PID.TID 0000.0001)               'c29'
(PID.TID 0000.0001)     ;
(PID.TID 0000.0001) PTRACERS_long_names = /* Tracer long name */
(PID.TID 0000.0001)               ''
(PID.TID 0000.0001)     ;
(PID.TID 0000.0001) PTRACERS_ioLabel = /* tracer IO Label */
(PID.TID 0000.0001)               '46'
(PID.TID 0000.0001)     ;
(PID.TID 0000.0001) PTRACERS_advScheme = /* Advection Scheme */
(PID.TID 0000.0001)                      33
(PID.TID 0000.0001)     ;
(PID.TID 0000.0001) PTRACERS_SOM_Advection = /* tracer uses SOM advection scheme */
(PID.TID 0000.0001)                   F
(PID.TID 0000.0001)     ;
(PID.TID 0000.0001) PTRACERS_ImplVertAdv = /* implicit vert. advection flag */
(PID.TID 0000.0001)                   F
(PID.TID 0000.0001)     ;
(PID.TID 0000.0001) PTRACERS_diffKh = /* Laplacian Diffusivity */
(PID.TID 0000.0001)                 0.000000000000000E+00
(PID.TID 0000.0001)     ;
(PID.TID 0000.0001) PTRACERS_diffK4 = /* Biharmonic Diffusivity */
(PID.TID 0000.0001)                 0.000000000000000E+00
(PID.TID 0000.0001)     ;
(PID.TID 0000.0001) PTRACERS_diffKrNr = /* Vertical Diffusivity */
(PID.TID 0000.0001)    35 @  1.000000000000000E-05              /* K =  1: 35 */
(PID.TID 0000.0001)     ;
(PID.TID 0000.0001) PTRACERS_useGMRedi = /* apply GM-Redi */
(PID.TID 0000.0001)                   F
(PID.TID 0000.0001)     ;
(PID.TID 0000.0001) PTRACERS_useDWNSLP = /* apply DOWN-SLOPE Flow */
(PID.TID 0000.0001)                   F
(PID.TID 0000.0001)     ;
(PID.TID 0000.0001) PTRACERS_useKPP = /* apply KPP scheme */
(PID.TID 0000.0001)                   F
(PID.TID 0000.0001)     ;
(PID.TID 0000.0001) PTRACERS_ref = /* Reference vertical profile */
(PID.TID 0000.0001)    35 @  0.000000000000000E+00              /* K =  1: 35 */
(PID.TID 0000.0001)     ;
(PID.TID 0000.0001) PTRACERS_EvPrRn =/* tracer conc. in Evap. & Rain */
(PID.TID 0000.0001)                 1.234567000000000E+05
(PID.TID 0000.0001)     ;
(PID.TID 0000.0001)  -----------------------------------
(PID.TID 0000.0001)  tracer number :   47
(PID.TID 0000.0001) PTRACERS_names = /* Tracer short name */
(PID.TID 0000.0001)               'c30'
(PID.TID 0000.0001)     ;
(PID.TID 0000.0001) PTRACERS_long_names = /* Tracer long name */
(PID.TID 0000.0001)               ''
(PID.TID 0000.0001)     ;
(PID.TID 0000.0001) PTRACERS_ioLabel = /* tracer IO Label */
(PID.TID 0000.0001)               '47'
(PID.TID 0000.0001)     ;
(PID.TID 0000.0001) PTRACERS_advScheme = /* Advection Scheme */
(PID.TID 0000.0001)                      33
(PID.TID 0000.0001)     ;
(PID.TID 0000.0001) PTRACERS_SOM_Advection = /* tracer uses SOM advection scheme */
(PID.TID 0000.0001)                   F
(PID.TID 0000.0001)     ;
(PID.TID 0000.0001) PTRACERS_ImplVertAdv = /* implicit vert. advection flag */
(PID.TID 0000.0001)                   F
(PID.TID 0000.0001)     ;
(PID.TID 0000.0001) PTRACERS_diffKh = /* Laplacian Diffusivity */
(PID.TID 0000.0001)                 0.000000000000000E+00
(PID.TID 0000.0001)     ;
(PID.TID 0000.0001) PTRACERS_diffK4 = /* Biharmonic Diffusivity */
(PID.TID 0000.0001)                 0.000000000000000E+00
(PID.TID 0000.0001)     ;
(PID.TID 0000.0001) PTRACERS_diffKrNr = /* Vertical Diffusivity */
(PID.TID 0000.0001)    35 @  1.000000000000000E-05              /* K =  1: 35 */
(PID.TID 0000.0001)     ;
(PID.TID 0000.0001) PTRACERS_useGMRedi = /* apply GM-Redi */
(PID.TID 0000.0001)                   F
(PID.TID 0000.0001)     ;
(PID.TID 0000.0001) PTRACERS_useDWNSLP = /* apply DOWN-SLOPE Flow */
(PID.TID 0000.0001)                   F
(PID.TID 0000.0001)     ;
(PID.TID 0000.0001) PTRACERS_useKPP = /* apply KPP scheme */
(PID.TID 0000.0001)                   F
(PID.TID 0000.0001)     ;
(PID.TID 0000.0001) PTRACERS_ref = /* Reference vertical profile */
(PID.TID 0000.0001)    35 @  0.000000000000000E+00              /* K =  1: 35 */
(PID.TID 0000.0001)     ;
(PID.TID 0000.0001) PTRACERS_EvPrRn =/* tracer conc. in Evap. & Rain */
(PID.TID 0000.0001)                 1.234567000000000E+05
(PID.TID 0000.0001)     ;
(PID.TID 0000.0001)  -----------------------------------
(PID.TID 0000.0001)  tracer number :   48
(PID.TID 0000.0001) PTRACERS_names = /* Tracer short name */
(PID.TID 0000.0001)               'c31'
(PID.TID 0000.0001)     ;
(PID.TID 0000.0001) PTRACERS_long_names = /* Tracer long name */
(PID.TID 0000.0001)               ''
(PID.TID 0000.0001)     ;
(PID.TID 0000.0001) PTRACERS_ioLabel = /* tracer IO Label */
(PID.TID 0000.0001)               '48'
(PID.TID 0000.0001)     ;
(PID.TID 0000.0001) PTRACERS_advScheme = /* Advection Scheme */
(PID.TID 0000.0001)                      33
(PID.TID 0000.0001)     ;
(PID.TID 0000.0001) PTRACERS_SOM_Advection = /* tracer uses SOM advection scheme */
(PID.TID 0000.0001)                   F
(PID.TID 0000.0001)     ;
(PID.TID 0000.0001) PTRACERS_ImplVertAdv = /* implicit vert. advection flag */
(PID.TID 0000.0001)                   F
(PID.TID 0000.0001)     ;
(PID.TID 0000.0001) PTRACERS_diffKh = /* Laplacian Diffusivity */
(PID.TID 0000.0001)                 0.000000000000000E+00
(PID.TID 0000.0001)     ;
(PID.TID 0000.0001) PTRACERS_diffK4 = /* Biharmonic Diffusivity */
(PID.TID 0000.0001)                 0.000000000000000E+00
(PID.TID 0000.0001)     ;
(PID.TID 0000.0001) PTRACERS_diffKrNr = /* Vertical Diffusivity */
(PID.TID 0000.0001)    35 @  1.000000000000000E-05              /* K =  1: 35 */
(PID.TID 0000.0001)     ;
(PID.TID 0000.0001) PTRACERS_useGMRedi = /* apply GM-Redi */
(PID.TID 0000.0001)                   F
(PID.TID 0000.0001)     ;
(PID.TID 0000.0001) PTRACERS_useDWNSLP = /* apply DOWN-SLOPE Flow */
(PID.TID 0000.0001)                   F
(PID.TID 0000.0001)     ;
(PID.TID 0000.0001) PTRACERS_useKPP = /* apply KPP scheme */
(PID.TID 0000.0001)                   F
(PID.TID 0000.0001)     ;
(PID.TID 0000.0001) PTRACERS_ref = /* Reference vertical profile */
(PID.TID 0000.0001)    35 @  0.000000000000000E+00              /* K =  1: 35 */
(PID.TID 0000.0001)     ;
(PID.TID 0000.0001) PTRACERS_EvPrRn =/* tracer conc. in Evap. & Rain */
(PID.TID 0000.0001)                 1.234567000000000E+05
(PID.TID 0000.0001)     ;
(PID.TID 0000.0001)  -----------------------------------
(PID.TID 0000.0001)  tracer number :   49
(PID.TID 0000.0001) PTRACERS_names = /* Tracer short name */
(PID.TID 0000.0001)               'c32'
(PID.TID 0000.0001)     ;
(PID.TID 0000.0001) PTRACERS_long_names = /* Tracer long name */
(PID.TID 0000.0001)               ''
(PID.TID 0000.0001)     ;
(PID.TID 0000.0001) PTRACERS_ioLabel = /* tracer IO Label */
(PID.TID 0000.0001)               '49'
(PID.TID 0000.0001)     ;
(PID.TID 0000.0001) PTRACERS_advScheme = /* Advection Scheme */
(PID.TID 0000.0001)                      33
(PID.TID 0000.0001)     ;
(PID.TID 0000.0001) PTRACERS_SOM_Advection = /* tracer uses SOM advection scheme */
(PID.TID 0000.0001)                   F
(PID.TID 0000.0001)     ;
(PID.TID 0000.0001) PTRACERS_ImplVertAdv = /* implicit vert. advection flag */
(PID.TID 0000.0001)                   F
(PID.TID 0000.0001)     ;
(PID.TID 0000.0001) PTRACERS_diffKh = /* Laplacian Diffusivity */
(PID.TID 0000.0001)                 0.000000000000000E+00
(PID.TID 0000.0001)     ;
(PID.TID 0000.0001) PTRACERS_diffK4 = /* Biharmonic Diffusivity */
(PID.TID 0000.0001)                 0.000000000000000E+00
(PID.TID 0000.0001)     ;
(PID.TID 0000.0001) PTRACERS_diffKrNr = /* Vertical Diffusivity */
(PID.TID 0000.0001)    35 @  1.000000000000000E-05              /* K =  1: 35 */
(PID.TID 0000.0001)     ;
(PID.TID 0000.0001) PTRACERS_useGMRedi = /* apply GM-Redi */
(PID.TID 0000.0001)                   F
(PID.TID 0000.0001)     ;
(PID.TID 0000.0001) PTRACERS_useDWNSLP = /* apply DOWN-SLOPE Flow */
(PID.TID 0000.0001)                   F
(PID.TID 0000.0001)     ;
(PID.TID 0000.0001) PTRACERS_useKPP = /* apply KPP scheme */
(PID.TID 0000.0001)                   F
(PID.TID 0000.0001)     ;
(PID.TID 0000.0001) PTRACERS_ref = /* Reference vertical profile */
(PID.TID 0000.0001)    35 @  0.000000000000000E+00              /* K =  1: 35 */
(PID.TID 0000.0001)     ;
(PID.TID 0000.0001) PTRACERS_EvPrRn =/* tracer conc. in Evap. & Rain */
(PID.TID 0000.0001)                 1.234567000000000E+05
(PID.TID 0000.0001)     ;
(PID.TID 0000.0001)  -----------------------------------
(PID.TID 0000.0001)  tracer number :   50
(PID.TID 0000.0001) PTRACERS_names = /* Tracer short name */
(PID.TID 0000.0001)               'c33'
(PID.TID 0000.0001)     ;
(PID.TID 0000.0001) PTRACERS_long_names = /* Tracer long name */
(PID.TID 0000.0001)               ''
(PID.TID 0000.0001)     ;
(PID.TID 0000.0001) PTRACERS_ioLabel = /* tracer IO Label */
(PID.TID 0000.0001)               '50'
(PID.TID 0000.0001)     ;
(PID.TID 0000.0001) PTRACERS_advScheme = /* Advection Scheme */
(PID.TID 0000.0001)                      33
(PID.TID 0000.0001)     ;
(PID.TID 0000.0001) PTRACERS_SOM_Advection = /* tracer uses SOM advection scheme */
(PID.TID 0000.0001)                   F
(PID.TID 0000.0001)     ;
(PID.TID 0000.0001) PTRACERS_ImplVertAdv = /* implicit vert. advection flag */
(PID.TID 0000.0001)                   F
(PID.TID 0000.0001)     ;
(PID.TID 0000.0001) PTRACERS_diffKh = /* Laplacian Diffusivity */
(PID.TID 0000.0001)                 0.000000000000000E+00
(PID.TID 0000.0001)     ;
(PID.TID 0000.0001) PTRACERS_diffK4 = /* Biharmonic Diffusivity */
(PID.TID 0000.0001)                 0.000000000000000E+00
(PID.TID 0000.0001)     ;
(PID.TID 0000.0001) PTRACERS_diffKrNr = /* Vertical Diffusivity */
(PID.TID 0000.0001)    35 @  1.000000000000000E-05              /* K =  1: 35 */
(PID.TID 0000.0001)     ;
(PID.TID 0000.0001) PTRACERS_useGMRedi = /* apply GM-Redi */
(PID.TID 0000.0001)                   F
(PID.TID 0000.0001)     ;
(PID.TID 0000.0001) PTRACERS_useDWNSLP = /* apply DOWN-SLOPE Flow */
(PID.TID 0000.0001)                   F
(PID.TID 0000.0001)     ;
(PID.TID 0000.0001) PTRACERS_useKPP = /* apply KPP scheme */
(PID.TID 0000.0001)                   F
(PID.TID 0000.0001)     ;
(PID.TID 0000.0001) PTRACERS_ref = /* Reference vertical profile */
(PID.TID 0000.0001)    35 @  0.000000000000000E+00              /* K =  1: 35 */
(PID.TID 0000.0001)     ;
(PID.TID 0000.0001) PTRACERS_EvPrRn =/* tracer conc. in Evap. & Rain */
(PID.TID 0000.0001)                 1.234567000000000E+05
(PID.TID 0000.0001)     ;
(PID.TID 0000.0001)  -----------------------------------
(PID.TID 0000.0001)  tracer number :   51
(PID.TID 0000.0001) PTRACERS_names = /* Tracer short name */
(PID.TID 0000.0001)               'c34'
(PID.TID 0000.0001)     ;
(PID.TID 0000.0001) PTRACERS_long_names = /* Tracer long name */
(PID.TID 0000.0001)               ''
(PID.TID 0000.0001)     ;
(PID.TID 0000.0001) PTRACERS_ioLabel = /* tracer IO Label */
(PID.TID 0000.0001)               '51'
(PID.TID 0000.0001)     ;
(PID.TID 0000.0001) PTRACERS_advScheme = /* Advection Scheme */
(PID.TID 0000.0001)                      33
(PID.TID 0000.0001)     ;
(PID.TID 0000.0001) PTRACERS_SOM_Advection = /* tracer uses SOM advection scheme */
(PID.TID 0000.0001)                   F
(PID.TID 0000.0001)     ;
(PID.TID 0000.0001) PTRACERS_ImplVertAdv = /* implicit vert. advection flag */
(PID.TID 0000.0001)                   F
(PID.TID 0000.0001)     ;
(PID.TID 0000.0001) PTRACERS_diffKh = /* Laplacian Diffusivity */
(PID.TID 0000.0001)                 0.000000000000000E+00
(PID.TID 0000.0001)     ;
(PID.TID 0000.0001) PTRACERS_diffK4 = /* Biharmonic Diffusivity */
(PID.TID 0000.0001)                 0.000000000000000E+00
(PID.TID 0000.0001)     ;
(PID.TID 0000.0001) PTRACERS_diffKrNr = /* Vertical Diffusivity */
(PID.TID 0000.0001)    35 @  1.000000000000000E-05              /* K =  1: 35 */
(PID.TID 0000.0001)     ;
(PID.TID 0000.0001) PTRACERS_useGMRedi = /* apply GM-Redi */
(PID.TID 0000.0001)                   F
(PID.TID 0000.0001)     ;
(PID.TID 0000.0001) PTRACERS_useDWNSLP = /* apply DOWN-SLOPE Flow */
(PID.TID 0000.0001)                   F
(PID.TID 0000.0001)     ;
(PID.TID 0000.0001) PTRACERS_useKPP = /* apply KPP scheme */
(PID.TID 0000.0001)                   F
(PID.TID 0000.0001)     ;
(PID.TID 0000.0001) PTRACERS_ref = /* Reference vertical profile */
(PID.TID 0000.0001)    35 @  0.000000000000000E+00              /* K =  1: 35 */
(PID.TID 0000.0001)     ;
(PID.TID 0000.0001) PTRACERS_EvPrRn =/* tracer conc. in Evap. & Rain */
(PID.TID 0000.0001)                 1.234567000000000E+05
(PID.TID 0000.0001)     ;
(PID.TID 0000.0001)  -----------------------------------
(PID.TID 0000.0001)  tracer number :   52
(PID.TID 0000.0001) PTRACERS_names = /* Tracer short name */
(PID.TID 0000.0001)               'c35'
(PID.TID 0000.0001)     ;
(PID.TID 0000.0001) PTRACERS_long_names = /* Tracer long name */
(PID.TID 0000.0001)               ''
(PID.TID 0000.0001)     ;
(PID.TID 0000.0001) PTRACERS_ioLabel = /* tracer IO Label */
(PID.TID 0000.0001)               '52'
(PID.TID 0000.0001)     ;
(PID.TID 0000.0001) PTRACERS_advScheme = /* Advection Scheme */
(PID.TID 0000.0001)                      33
(PID.TID 0000.0001)     ;
(PID.TID 0000.0001) PTRACERS_SOM_Advection = /* tracer uses SOM advection scheme */
(PID.TID 0000.0001)                   F
(PID.TID 0000.0001)     ;
(PID.TID 0000.0001) PTRACERS_ImplVertAdv = /* implicit vert. advection flag */
(PID.TID 0000.0001)                   F
(PID.TID 0000.0001)     ;
(PID.TID 0000.0001) PTRACERS_diffKh = /* Laplacian Diffusivity */
(PID.TID 0000.0001)                 0.000000000000000E+00
(PID.TID 0000.0001)     ;
(PID.TID 0000.0001) PTRACERS_diffK4 = /* Biharmonic Diffusivity */
(PID.TID 0000.0001)                 0.000000000000000E+00
(PID.TID 0000.0001)     ;
(PID.TID 0000.0001) PTRACERS_diffKrNr = /* Vertical Diffusivity */
(PID.TID 0000.0001)    35 @  1.000000000000000E-05              /* K =  1: 35 */
(PID.TID 0000.0001)     ;
(PID.TID 0000.0001) PTRACERS_useGMRedi = /* apply GM-Redi */
(PID.TID 0000.0001)                   F
(PID.TID 0000.0001)     ;
(PID.TID 0000.0001) PTRACERS_useDWNSLP = /* apply DOWN-SLOPE Flow */
(PID.TID 0000.0001)                   F
(PID.TID 0000.0001)     ;
(PID.TID 0000.0001) PTRACERS_useKPP = /* apply KPP scheme */
(PID.TID 0000.0001)                   F
(PID.TID 0000.0001)     ;
(PID.TID 0000.0001) PTRACERS_ref = /* Reference vertical profile */
(PID.TID 0000.0001)    35 @  0.000000000000000E+00              /* K =  1: 35 */
(PID.TID 0000.0001)     ;
(PID.TID 0000.0001) PTRACERS_EvPrRn =/* tracer conc. in Evap. & Rain */
(PID.TID 0000.0001)                 1.234567000000000E+05
(PID.TID 0000.0001)     ;
(PID.TID 0000.0001)  -----------------------------------
(PID.TID 0000.0001)  tracer number :   53
(PID.TID 0000.0001) PTRACERS_names = /* Tracer short name */
(PID.TID 0000.0001)               'c36'
(PID.TID 0000.0001)     ;
(PID.TID 0000.0001) PTRACERS_long_names = /* Tracer long name */
(PID.TID 0000.0001)               ''
(PID.TID 0000.0001)     ;
(PID.TID 0000.0001) PTRACERS_ioLabel = /* tracer IO Label */
(PID.TID 0000.0001)               '53'
(PID.TID 0000.0001)     ;
(PID.TID 0000.0001) PTRACERS_advScheme = /* Advection Scheme */
(PID.TID 0000.0001)                      33
(PID.TID 0000.0001)     ;
(PID.TID 0000.0001) PTRACERS_SOM_Advection = /* tracer uses SOM advection scheme */
(PID.TID 0000.0001)                   F
(PID.TID 0000.0001)     ;
(PID.TID 0000.0001) PTRACERS_ImplVertAdv = /* implicit vert. advection flag */
(PID.TID 0000.0001)                   F
(PID.TID 0000.0001)     ;
(PID.TID 0000.0001) PTRACERS_diffKh = /* Laplacian Diffusivity */
(PID.TID 0000.0001)                 0.000000000000000E+00
(PID.TID 0000.0001)     ;
(PID.TID 0000.0001) PTRACERS_diffK4 = /* Biharmonic Diffusivity */
(PID.TID 0000.0001)                 0.000000000000000E+00
(PID.TID 0000.0001)     ;
(PID.TID 0000.0001) PTRACERS_diffKrNr = /* Vertical Diffusivity */
(PID.TID 0000.0001)    35 @  1.000000000000000E-05              /* K =  1: 35 */
(PID.TID 0000.0001)     ;
(PID.TID 0000.0001) PTRACERS_useGMRedi = /* apply GM-Redi */
(PID.TID 0000.0001)                   F
(PID.TID 0000.0001)     ;
(PID.TID 0000.0001) PTRACERS_useDWNSLP = /* apply DOWN-SLOPE Flow */
(PID.TID 0000.0001)                   F
(PID.TID 0000.0001)     ;
(PID.TID 0000.0001) PTRACERS_useKPP = /* apply KPP scheme */
(PID.TID 0000.0001)                   F
(PID.TID 0000.0001)     ;
(PID.TID 0000.0001) PTRACERS_ref = /* Reference vertical profile */
(PID.TID 0000.0001)    35 @  0.000000000000000E+00              /* K =  1: 35 */
(PID.TID 0000.0001)     ;
(PID.TID 0000.0001) PTRACERS_EvPrRn =/* tracer conc. in Evap. & Rain */
(PID.TID 0000.0001)                 1.234567000000000E+05
(PID.TID 0000.0001)     ;
(PID.TID 0000.0001)  -----------------------------------
(PID.TID 0000.0001)  tracer number :   54
(PID.TID 0000.0001) PTRACERS_names = /* Tracer short name */
(PID.TID 0000.0001)               'c37'
(PID.TID 0000.0001)     ;
(PID.TID 0000.0001) PTRACERS_long_names = /* Tracer long name */
(PID.TID 0000.0001)               ''
(PID.TID 0000.0001)     ;
(PID.TID 0000.0001) PTRACERS_ioLabel = /* tracer IO Label */
(PID.TID 0000.0001)               '54'
(PID.TID 0000.0001)     ;
(PID.TID 0000.0001) PTRACERS_advScheme = /* Advection Scheme */
(PID.TID 0000.0001)                      33
(PID.TID 0000.0001)     ;
(PID.TID 0000.0001) PTRACERS_SOM_Advection = /* tracer uses SOM advection scheme */
(PID.TID 0000.0001)                   F
(PID.TID 0000.0001)     ;
(PID.TID 0000.0001) PTRACERS_ImplVertAdv = /* implicit vert. advection flag */
(PID.TID 0000.0001)                   F
(PID.TID 0000.0001)     ;
(PID.TID 0000.0001) PTRACERS_diffKh = /* Laplacian Diffusivity */
(PID.TID 0000.0001)                 0.000000000000000E+00
(PID.TID 0000.0001)     ;
(PID.TID 0000.0001) PTRACERS_diffK4 = /* Biharmonic Diffusivity */
(PID.TID 0000.0001)                 0.000000000000000E+00
(PID.TID 0000.0001)     ;
(PID.TID 0000.0001) PTRACERS_diffKrNr = /* Vertical Diffusivity */
(PID.TID 0000.0001)    35 @  1.000000000000000E-05              /* K =  1: 35 */
(PID.TID 0000.0001)     ;
(PID.TID 0000.0001) PTRACERS_useGMRedi = /* apply GM-Redi */
(PID.TID 0000.0001)                   F
(PID.TID 0000.0001)     ;
(PID.TID 0000.0001) PTRACERS_useDWNSLP = /* apply DOWN-SLOPE Flow */
(PID.TID 0000.0001)                   F
(PID.TID 0000.0001)     ;
(PID.TID 0000.0001) PTRACERS_useKPP = /* apply KPP scheme */
(PID.TID 0000.0001)                   F
(PID.TID 0000.0001)     ;
(PID.TID 0000.0001) PTRACERS_ref = /* Reference vertical profile */
(PID.TID 0000.0001)    35 @  0.000000000000000E+00              /* K =  1: 35 */
(PID.TID 0000.0001)     ;
(PID.TID 0000.0001) PTRACERS_EvPrRn =/* tracer conc. in Evap. & Rain */
(PID.TID 0000.0001)                 1.234567000000000E+05
(PID.TID 0000.0001)     ;
(PID.TID 0000.0001)  -----------------------------------
(PID.TID 0000.0001)  tracer number :   55
(PID.TID 0000.0001) PTRACERS_names = /* Tracer short name */
(PID.TID 0000.0001)               'c38'
(PID.TID 0000.0001)     ;
(PID.TID 0000.0001) PTRACERS_long_names = /* Tracer long name */
(PID.TID 0000.0001)               ''
(PID.TID 0000.0001)     ;
(PID.TID 0000.0001) PTRACERS_ioLabel = /* tracer IO Label */
(PID.TID 0000.0001)               '55'
(PID.TID 0000.0001)     ;
(PID.TID 0000.0001) PTRACERS_advScheme = /* Advection Scheme */
(PID.TID 0000.0001)                      33
(PID.TID 0000.0001)     ;
(PID.TID 0000.0001) PTRACERS_SOM_Advection = /* tracer uses SOM advection scheme */
(PID.TID 0000.0001)                   F
(PID.TID 0000.0001)     ;
(PID.TID 0000.0001) PTRACERS_ImplVertAdv = /* implicit vert. advection flag */
(PID.TID 0000.0001)                   F
(PID.TID 0000.0001)     ;
(PID.TID 0000.0001) PTRACERS_diffKh = /* Laplacian Diffusivity */
(PID.TID 0000.0001)                 0.000000000000000E+00
(PID.TID 0000.0001)     ;
(PID.TID 0000.0001) PTRACERS_diffK4 = /* Biharmonic Diffusivity */
(PID.TID 0000.0001)                 0.000000000000000E+00
(PID.TID 0000.0001)     ;
(PID.TID 0000.0001) PTRACERS_diffKrNr = /* Vertical Diffusivity */
(PID.TID 0000.0001)    35 @  1.000000000000000E-05              /* K =  1: 35 */
(PID.TID 0000.0001)     ;
(PID.TID 0000.0001) PTRACERS_useGMRedi = /* apply GM-Redi */
(PID.TID 0000.0001)                   F
(PID.TID 0000.0001)     ;
(PID.TID 0000.0001) PTRACERS_useDWNSLP = /* apply DOWN-SLOPE Flow */
(PID.TID 0000.0001)                   F
(PID.TID 0000.0001)     ;
(PID.TID 0000.0001) PTRACERS_useKPP = /* apply KPP scheme */
(PID.TID 0000.0001)                   F
(PID.TID 0000.0001)     ;
(PID.TID 0000.0001) PTRACERS_ref = /* Reference vertical profile */
(PID.TID 0000.0001)    35 @  0.000000000000000E+00              /* K =  1: 35 */
(PID.TID 0000.0001)     ;
(PID.TID 0000.0001) PTRACERS_EvPrRn =/* tracer conc. in Evap. & Rain */
(PID.TID 0000.0001)                 1.234567000000000E+05
(PID.TID 0000.0001)     ;
(PID.TID 0000.0001)  -----------------------------------
(PID.TID 0000.0001)  tracer number :   56
(PID.TID 0000.0001) PTRACERS_names = /* Tracer short name */
(PID.TID 0000.0001)               'c39'
(PID.TID 0000.0001)     ;
(PID.TID 0000.0001) PTRACERS_long_names = /* Tracer long name */
(PID.TID 0000.0001)               ''
(PID.TID 0000.0001)     ;
(PID.TID 0000.0001) PTRACERS_ioLabel = /* tracer IO Label */
(PID.TID 0000.0001)               '56'
(PID.TID 0000.0001)     ;
(PID.TID 0000.0001) PTRACERS_advScheme = /* Advection Scheme */
(PID.TID 0000.0001)                      33
(PID.TID 0000.0001)     ;
(PID.TID 0000.0001) PTRACERS_SOM_Advection = /* tracer uses SOM advection scheme */
(PID.TID 0000.0001)                   F
(PID.TID 0000.0001)     ;
(PID.TID 0000.0001) PTRACERS_ImplVertAdv = /* implicit vert. advection flag */
(PID.TID 0000.0001)                   F
(PID.TID 0000.0001)     ;
(PID.TID 0000.0001) PTRACERS_diffKh = /* Laplacian Diffusivity */
(PID.TID 0000.0001)                 0.000000000000000E+00
(PID.TID 0000.0001)     ;
(PID.TID 0000.0001) PTRACERS_diffK4 = /* Biharmonic Diffusivity */
(PID.TID 0000.0001)                 0.000000000000000E+00
(PID.TID 0000.0001)     ;
(PID.TID 0000.0001) PTRACERS_diffKrNr = /* Vertical Diffusivity */
(PID.TID 0000.0001)    35 @  1.000000000000000E-05              /* K =  1: 35 */
(PID.TID 0000.0001)     ;
(PID.TID 0000.0001) PTRACERS_useGMRedi = /* apply GM-Redi */
(PID.TID 0000.0001)                   F
(PID.TID 0000.0001)     ;
(PID.TID 0000.0001) PTRACERS_useDWNSLP = /* apply DOWN-SLOPE Flow */
(PID.TID 0000.0001)                   F
(PID.TID 0000.0001)     ;
(PID.TID 0000.0001) PTRACERS_useKPP = /* apply KPP scheme */
(PID.TID 0000.0001)                   F
(PID.TID 0000.0001)     ;
(PID.TID 0000.0001) PTRACERS_ref = /* Reference vertical profile */
(PID.TID 0000.0001)    35 @  0.000000000000000E+00              /* K =  1: 35 */
(PID.TID 0000.0001)     ;
(PID.TID 0000.0001) PTRACERS_EvPrRn =/* tracer conc. in Evap. & Rain */
(PID.TID 0000.0001)                 1.234567000000000E+05
(PID.TID 0000.0001)     ;
(PID.TID 0000.0001)  -----------------------------------
(PID.TID 0000.0001)  tracer number :   57
(PID.TID 0000.0001) PTRACERS_names = /* Tracer short name */
(PID.TID 0000.0001)               'c40'
(PID.TID 0000.0001)     ;
(PID.TID 0000.0001) PTRACERS_long_names = /* Tracer long name */
(PID.TID 0000.0001)               ''
(PID.TID 0000.0001)     ;
(PID.TID 0000.0001) PTRACERS_ioLabel = /* tracer IO Label */
(PID.TID 0000.0001)               '57'
(PID.TID 0000.0001)     ;
(PID.TID 0000.0001) PTRACERS_advScheme = /* Advection Scheme */
(PID.TID 0000.0001)                      33
(PID.TID 0000.0001)     ;
(PID.TID 0000.0001) PTRACERS_SOM_Advection = /* tracer uses SOM advection scheme */
(PID.TID 0000.0001)                   F
(PID.TID 0000.0001)     ;
(PID.TID 0000.0001) PTRACERS_ImplVertAdv = /* implicit vert. advection flag */
(PID.TID 0000.0001)                   F
(PID.TID 0000.0001)     ;
(PID.TID 0000.0001) PTRACERS_diffKh = /* Laplacian Diffusivity */
(PID.TID 0000.0001)                 0.000000000000000E+00
(PID.TID 0000.0001)     ;
(PID.TID 0000.0001) PTRACERS_diffK4 = /* Biharmonic Diffusivity */
(PID.TID 0000.0001)                 0.000000000000000E+00
(PID.TID 0000.0001)     ;
(PID.TID 0000.0001) PTRACERS_diffKrNr = /* Vertical Diffusivity */
(PID.TID 0000.0001)    35 @  1.000000000000000E-05              /* K =  1: 35 */
(PID.TID 0000.0001)     ;
(PID.TID 0000.0001) PTRACERS_useGMRedi = /* apply GM-Redi */
(PID.TID 0000.0001)                   F
(PID.TID 0000.0001)     ;
(PID.TID 0000.0001) PTRACERS_useDWNSLP = /* apply DOWN-SLOPE Flow */
(PID.TID 0000.0001)                   F
(PID.TID 0000.0001)     ;
(PID.TID 0000.0001) PTRACERS_useKPP = /* apply KPP scheme */
(PID.TID 0000.0001)                   F
(PID.TID 0000.0001)     ;
(PID.TID 0000.0001) PTRACERS_ref = /* Reference vertical profile */
(PID.TID 0000.0001)    35 @  0.000000000000000E+00              /* K =  1: 35 */
(PID.TID 0000.0001)     ;
(PID.TID 0000.0001) PTRACERS_EvPrRn =/* tracer conc. in Evap. & Rain */
(PID.TID 0000.0001)                 1.234567000000000E+05
(PID.TID 0000.0001)     ;
(PID.TID 0000.0001)  -----------------------------------
(PID.TID 0000.0001)  tracer number :   58
(PID.TID 0000.0001) PTRACERS_names = /* Tracer short name */
(PID.TID 0000.0001)               'c41'
(PID.TID 0000.0001)     ;
(PID.TID 0000.0001) PTRACERS_long_names = /* Tracer long name */
(PID.TID 0000.0001)               ''
(PID.TID 0000.0001)     ;
(PID.TID 0000.0001) PTRACERS_ioLabel = /* tracer IO Label */
(PID.TID 0000.0001)               '58'
(PID.TID 0000.0001)     ;
(PID.TID 0000.0001) PTRACERS_advScheme = /* Advection Scheme */
(PID.TID 0000.0001)                      33
(PID.TID 0000.0001)     ;
(PID.TID 0000.0001) PTRACERS_SOM_Advection = /* tracer uses SOM advection scheme */
(PID.TID 0000.0001)                   F
(PID.TID 0000.0001)     ;
(PID.TID 0000.0001) PTRACERS_ImplVertAdv = /* implicit vert. advection flag */
(PID.TID 0000.0001)                   F
(PID.TID 0000.0001)     ;
(PID.TID 0000.0001) PTRACERS_diffKh = /* Laplacian Diffusivity */
(PID.TID 0000.0001)                 0.000000000000000E+00
(PID.TID 0000.0001)     ;
(PID.TID 0000.0001) PTRACERS_diffK4 = /* Biharmonic Diffusivity */
(PID.TID 0000.0001)                 0.000000000000000E+00
(PID.TID 0000.0001)     ;
(PID.TID 0000.0001) PTRACERS_diffKrNr = /* Vertical Diffusivity */
(PID.TID 0000.0001)    35 @  1.000000000000000E-05              /* K =  1: 35 */
(PID.TID 0000.0001)     ;
(PID.TID 0000.0001) PTRACERS_useGMRedi = /* apply GM-Redi */
(PID.TID 0000.0001)                   F
(PID.TID 0000.0001)     ;
(PID.TID 0000.0001) PTRACERS_useDWNSLP = /* apply DOWN-SLOPE Flow */
(PID.TID 0000.0001)                   F
(PID.TID 0000.0001)     ;
(PID.TID 0000.0001) PTRACERS_useKPP = /* apply KPP scheme */
(PID.TID 0000.0001)                   F
(PID.TID 0000.0001)     ;
(PID.TID 0000.0001) PTRACERS_ref = /* Reference vertical profile */
(PID.TID 0000.0001)    35 @  0.000000000000000E+00              /* K =  1: 35 */
(PID.TID 0000.0001)     ;
(PID.TID 0000.0001) PTRACERS_EvPrRn =/* tracer conc. in Evap. & Rain */
(PID.TID 0000.0001)                 1.234567000000000E+05
(PID.TID 0000.0001)     ;
(PID.TID 0000.0001)  -----------------------------------
(PID.TID 0000.0001)  tracer number :   59
(PID.TID 0000.0001) PTRACERS_names = /* Tracer short name */
(PID.TID 0000.0001)               'c42'
(PID.TID 0000.0001)     ;
(PID.TID 0000.0001) PTRACERS_long_names = /* Tracer long name */
(PID.TID 0000.0001)               ''
(PID.TID 0000.0001)     ;
(PID.TID 0000.0001) PTRACERS_ioLabel = /* tracer IO Label */
(PID.TID 0000.0001)               '59'
(PID.TID 0000.0001)     ;
(PID.TID 0000.0001) PTRACERS_advScheme = /* Advection Scheme */
(PID.TID 0000.0001)                      33
(PID.TID 0000.0001)     ;
(PID.TID 0000.0001) PTRACERS_SOM_Advection = /* tracer uses SOM advection scheme */
(PID.TID 0000.0001)                   F
(PID.TID 0000.0001)     ;
(PID.TID 0000.0001) PTRACERS_ImplVertAdv = /* implicit vert. advection flag */
(PID.TID 0000.0001)                   F
(PID.TID 0000.0001)     ;
(PID.TID 0000.0001) PTRACERS_diffKh = /* Laplacian Diffusivity */
(PID.TID 0000.0001)                 0.000000000000000E+00
(PID.TID 0000.0001)     ;
(PID.TID 0000.0001) PTRACERS_diffK4 = /* Biharmonic Diffusivity */
(PID.TID 0000.0001)                 0.000000000000000E+00
(PID.TID 0000.0001)     ;
(PID.TID 0000.0001) PTRACERS_diffKrNr = /* Vertical Diffusivity */
(PID.TID 0000.0001)    35 @  1.000000000000000E-05              /* K =  1: 35 */
(PID.TID 0000.0001)     ;
(PID.TID 0000.0001) PTRACERS_useGMRedi = /* apply GM-Redi */
(PID.TID 0000.0001)                   F
(PID.TID 0000.0001)     ;
(PID.TID 0000.0001) PTRACERS_useDWNSLP = /* apply DOWN-SLOPE Flow */
(PID.TID 0000.0001)                   F
(PID.TID 0000.0001)     ;
(PID.TID 0000.0001) PTRACERS_useKPP = /* apply KPP scheme */
(PID.TID 0000.0001)                   F
(PID.TID 0000.0001)     ;
(PID.TID 0000.0001) PTRACERS_ref = /* Reference vertical profile */
(PID.TID 0000.0001)    35 @  0.000000000000000E+00              /* K =  1: 35 */
(PID.TID 0000.0001)     ;
(PID.TID 0000.0001) PTRACERS_EvPrRn =/* tracer conc. in Evap. & Rain */
(PID.TID 0000.0001)                 1.234567000000000E+05
(PID.TID 0000.0001)     ;
(PID.TID 0000.0001)  -----------------------------------
(PID.TID 0000.0001)  tracer number :   60
(PID.TID 0000.0001) PTRACERS_names = /* Tracer short name */
(PID.TID 0000.0001)               'c43'
(PID.TID 0000.0001)     ;
(PID.TID 0000.0001) PTRACERS_long_names = /* Tracer long name */
(PID.TID 0000.0001)               ''
(PID.TID 0000.0001)     ;
(PID.TID 0000.0001) PTRACERS_ioLabel = /* tracer IO Label */
(PID.TID 0000.0001)               '60'
(PID.TID 0000.0001)     ;
(PID.TID 0000.0001) PTRACERS_advScheme = /* Advection Scheme */
(PID.TID 0000.0001)                      33
(PID.TID 0000.0001)     ;
(PID.TID 0000.0001) PTRACERS_SOM_Advection = /* tracer uses SOM advection scheme */
(PID.TID 0000.0001)                   F
(PID.TID 0000.0001)     ;
(PID.TID 0000.0001) PTRACERS_ImplVertAdv = /* implicit vert. advection flag */
(PID.TID 0000.0001)                   F
(PID.TID 0000.0001)     ;
(PID.TID 0000.0001) PTRACERS_diffKh = /* Laplacian Diffusivity */
(PID.TID 0000.0001)                 0.000000000000000E+00
(PID.TID 0000.0001)     ;
(PID.TID 0000.0001) PTRACERS_diffK4 = /* Biharmonic Diffusivity */
(PID.TID 0000.0001)                 0.000000000000000E+00
(PID.TID 0000.0001)     ;
(PID.TID 0000.0001) PTRACERS_diffKrNr = /* Vertical Diffusivity */
(PID.TID 0000.0001)    35 @  1.000000000000000E-05              /* K =  1: 35 */
(PID.TID 0000.0001)     ;
(PID.TID 0000.0001) PTRACERS_useGMRedi = /* apply GM-Redi */
(PID.TID 0000.0001)                   F
(PID.TID 0000.0001)     ;
(PID.TID 0000.0001) PTRACERS_useDWNSLP = /* apply DOWN-SLOPE Flow */
(PID.TID 0000.0001)                   F
(PID.TID 0000.0001)     ;
(PID.TID 0000.0001) PTRACERS_useKPP = /* apply KPP scheme */
(PID.TID 0000.0001)                   F
(PID.TID 0000.0001)     ;
(PID.TID 0000.0001) PTRACERS_ref = /* Reference vertical profile */
(PID.TID 0000.0001)    35 @  0.000000000000000E+00              /* K =  1: 35 */
(PID.TID 0000.0001)     ;
(PID.TID 0000.0001) PTRACERS_EvPrRn =/* tracer conc. in Evap. & Rain */
(PID.TID 0000.0001)                 1.234567000000000E+05
(PID.TID 0000.0001)     ;
(PID.TID 0000.0001)  -----------------------------------
(PID.TID 0000.0001)  tracer number :   61
(PID.TID 0000.0001) PTRACERS_names = /* Tracer short name */
(PID.TID 0000.0001)               'c44'
(PID.TID 0000.0001)     ;
(PID.TID 0000.0001) PTRACERS_long_names = /* Tracer long name */
(PID.TID 0000.0001)               ''
(PID.TID 0000.0001)     ;
(PID.TID 0000.0001) PTRACERS_ioLabel = /* tracer IO Label */
(PID.TID 0000.0001)               '61'
(PID.TID 0000.0001)     ;
(PID.TID 0000.0001) PTRACERS_advScheme = /* Advection Scheme */
(PID.TID 0000.0001)                      33
(PID.TID 0000.0001)     ;
(PID.TID 0000.0001) PTRACERS_SOM_Advection = /* tracer uses SOM advection scheme */
(PID.TID 0000.0001)                   F
(PID.TID 0000.0001)     ;
(PID.TID 0000.0001) PTRACERS_ImplVertAdv = /* implicit vert. advection flag */
(PID.TID 0000.0001)                   F
(PID.TID 0000.0001)     ;
(PID.TID 0000.0001) PTRACERS_diffKh = /* Laplacian Diffusivity */
(PID.TID 0000.0001)                 0.000000000000000E+00
(PID.TID 0000.0001)     ;
(PID.TID 0000.0001) PTRACERS_diffK4 = /* Biharmonic Diffusivity */
(PID.TID 0000.0001)                 0.000000000000000E+00
(PID.TID 0000.0001)     ;
(PID.TID 0000.0001) PTRACERS_diffKrNr = /* Vertical Diffusivity */
(PID.TID 0000.0001)    35 @  1.000000000000000E-05              /* K =  1: 35 */
(PID.TID 0000.0001)     ;
(PID.TID 0000.0001) PTRACERS_useGMRedi = /* apply GM-Redi */
(PID.TID 0000.0001)                   F
(PID.TID 0000.0001)     ;
(PID.TID 0000.0001) PTRACERS_useDWNSLP = /* apply DOWN-SLOPE Flow */
(PID.TID 0000.0001)                   F
(PID.TID 0000.0001)     ;
(PID.TID 0000.0001) PTRACERS_useKPP = /* apply KPP scheme */
(PID.TID 0000.0001)                   F
(PID.TID 0000.0001)     ;
(PID.TID 0000.0001) PTRACERS_ref = /* Reference vertical profile */
(PID.TID 0000.0001)    35 @  0.000000000000000E+00              /* K =  1: 35 */
(PID.TID 0000.0001)     ;
(PID.TID 0000.0001) PTRACERS_EvPrRn =/* tracer conc. in Evap. & Rain */
(PID.TID 0000.0001)                 1.234567000000000E+05
(PID.TID 0000.0001)     ;
(PID.TID 0000.0001)  -----------------------------------
(PID.TID 0000.0001)  tracer number :   62
(PID.TID 0000.0001) PTRACERS_names = /* Tracer short name */
(PID.TID 0000.0001)               'c45'
(PID.TID 0000.0001)     ;
(PID.TID 0000.0001) PTRACERS_long_names = /* Tracer long name */
(PID.TID 0000.0001)               ''
(PID.TID 0000.0001)     ;
(PID.TID 0000.0001) PTRACERS_ioLabel = /* tracer IO Label */
(PID.TID 0000.0001)               '62'
(PID.TID 0000.0001)     ;
(PID.TID 0000.0001) PTRACERS_advScheme = /* Advection Scheme */
(PID.TID 0000.0001)                      33
(PID.TID 0000.0001)     ;
(PID.TID 0000.0001) PTRACERS_SOM_Advection = /* tracer uses SOM advection scheme */
(PID.TID 0000.0001)                   F
(PID.TID 0000.0001)     ;
(PID.TID 0000.0001) PTRACERS_ImplVertAdv = /* implicit vert. advection flag */
(PID.TID 0000.0001)                   F
(PID.TID 0000.0001)     ;
(PID.TID 0000.0001) PTRACERS_diffKh = /* Laplacian Diffusivity */
(PID.TID 0000.0001)                 0.000000000000000E+00
(PID.TID 0000.0001)     ;
(PID.TID 0000.0001) PTRACERS_diffK4 = /* Biharmonic Diffusivity */
(PID.TID 0000.0001)                 0.000000000000000E+00
(PID.TID 0000.0001)     ;
(PID.TID 0000.0001) PTRACERS_diffKrNr = /* Vertical Diffusivity */
(PID.TID 0000.0001)    35 @  1.000000000000000E-05              /* K =  1: 35 */
(PID.TID 0000.0001)     ;
(PID.TID 0000.0001) PTRACERS_useGMRedi = /* apply GM-Redi */
(PID.TID 0000.0001)                   F
(PID.TID 0000.0001)     ;
(PID.TID 0000.0001) PTRACERS_useDWNSLP = /* apply DOWN-SLOPE Flow */
(PID.TID 0000.0001)                   F
(PID.TID 0000.0001)     ;
(PID.TID 0000.0001) PTRACERS_useKPP = /* apply KPP scheme */
(PID.TID 0000.0001)                   F
(PID.TID 0000.0001)     ;
(PID.TID 0000.0001) PTRACERS_ref = /* Reference vertical profile */
(PID.TID 0000.0001)    35 @  0.000000000000000E+00              /* K =  1: 35 */
(PID.TID 0000.0001)     ;
(PID.TID 0000.0001) PTRACERS_EvPrRn =/* tracer conc. in Evap. & Rain */
(PID.TID 0000.0001)                 1.234567000000000E+05
(PID.TID 0000.0001)     ;
(PID.TID 0000.0001)  -----------------------------------
(PID.TID 0000.0001)  tracer number :   63
(PID.TID 0000.0001) PTRACERS_names = /* Tracer short name */
(PID.TID 0000.0001)               'c46'
(PID.TID 0000.0001)     ;
(PID.TID 0000.0001) PTRACERS_long_names = /* Tracer long name */
(PID.TID 0000.0001)               ''
(PID.TID 0000.0001)     ;
(PID.TID 0000.0001) PTRACERS_ioLabel = /* tracer IO Label */
(PID.TID 0000.0001)               '63'
(PID.TID 0000.0001)     ;
(PID.TID 0000.0001) PTRACERS_advScheme = /* Advection Scheme */
(PID.TID 0000.0001)                      33
(PID.TID 0000.0001)     ;
(PID.TID 0000.0001) PTRACERS_SOM_Advection = /* tracer uses SOM advection scheme */
(PID.TID 0000.0001)                   F
(PID.TID 0000.0001)     ;
(PID.TID 0000.0001) PTRACERS_ImplVertAdv = /* implicit vert. advection flag */
(PID.TID 0000.0001)                   F
(PID.TID 0000.0001)     ;
(PID.TID 0000.0001) PTRACERS_diffKh = /* Laplacian Diffusivity */
(PID.TID 0000.0001)                 0.000000000000000E+00
(PID.TID 0000.0001)     ;
(PID.TID 0000.0001) PTRACERS_diffK4 = /* Biharmonic Diffusivity */
(PID.TID 0000.0001)                 0.000000000000000E+00
(PID.TID 0000.0001)     ;
(PID.TID 0000.0001) PTRACERS_diffKrNr = /* Vertical Diffusivity */
(PID.TID 0000.0001)    35 @  1.000000000000000E-05              /* K =  1: 35 */
(PID.TID 0000.0001)     ;
(PID.TID 0000.0001) PTRACERS_useGMRedi = /* apply GM-Redi */
(PID.TID 0000.0001)                   F
(PID.TID 0000.0001)     ;
(PID.TID 0000.0001) PTRACERS_useDWNSLP = /* apply DOWN-SLOPE Flow */
(PID.TID 0000.0001)                   F
(PID.TID 0000.0001)     ;
(PID.TID 0000.0001) PTRACERS_useKPP = /* apply KPP scheme */
(PID.TID 0000.0001)                   F
(PID.TID 0000.0001)     ;
(PID.TID 0000.0001) PTRACERS_ref = /* Reference vertical profile */
(PID.TID 0000.0001)    35 @  0.000000000000000E+00              /* K =  1: 35 */
(PID.TID 0000.0001)     ;
(PID.TID 0000.0001) PTRACERS_EvPrRn =/* tracer conc. in Evap. & Rain */
(PID.TID 0000.0001)                 1.234567000000000E+05
(PID.TID 0000.0001)     ;
(PID.TID 0000.0001)  -----------------------------------
(PID.TID 0000.0001)  tracer number :   64
(PID.TID 0000.0001) PTRACERS_names = /* Tracer short name */
(PID.TID 0000.0001)               'c47'
(PID.TID 0000.0001)     ;
(PID.TID 0000.0001) PTRACERS_long_names = /* Tracer long name */
(PID.TID 0000.0001)               ''
(PID.TID 0000.0001)     ;
(PID.TID 0000.0001) PTRACERS_ioLabel = /* tracer IO Label */
(PID.TID 0000.0001)               '64'
(PID.TID 0000.0001)     ;
(PID.TID 0000.0001) PTRACERS_advScheme = /* Advection Scheme */
(PID.TID 0000.0001)                      33
(PID.TID 0000.0001)     ;
(PID.TID 0000.0001) PTRACERS_SOM_Advection = /* tracer uses SOM advection scheme */
(PID.TID 0000.0001)                   F
(PID.TID 0000.0001)     ;
(PID.TID 0000.0001) PTRACERS_ImplVertAdv = /* implicit vert. advection flag */
(PID.TID 0000.0001)                   F
(PID.TID 0000.0001)     ;
(PID.TID 0000.0001) PTRACERS_diffKh = /* Laplacian Diffusivity */
(PID.TID 0000.0001)                 0.000000000000000E+00
(PID.TID 0000.0001)     ;
(PID.TID 0000.0001) PTRACERS_diffK4 = /* Biharmonic Diffusivity */
(PID.TID 0000.0001)                 0.000000000000000E+00
(PID.TID 0000.0001)     ;
(PID.TID 0000.0001) PTRACERS_diffKrNr = /* Vertical Diffusivity */
(PID.TID 0000.0001)    35 @  1.000000000000000E-05              /* K =  1: 35 */
(PID.TID 0000.0001)     ;
(PID.TID 0000.0001) PTRACERS_useGMRedi = /* apply GM-Redi */
(PID.TID 0000.0001)                   F
(PID.TID 0000.0001)     ;
(PID.TID 0000.0001) PTRACERS_useDWNSLP = /* apply DOWN-SLOPE Flow */
(PID.TID 0000.0001)                   F
(PID.TID 0000.0001)     ;
(PID.TID 0000.0001) PTRACERS_useKPP = /* apply KPP scheme */
(PID.TID 0000.0001)                   F
(PID.TID 0000.0001)     ;
(PID.TID 0000.0001) PTRACERS_ref = /* Reference vertical profile */
(PID.TID 0000.0001)    35 @  0.000000000000000E+00              /* K =  1: 35 */
(PID.TID 0000.0001)     ;
(PID.TID 0000.0001) PTRACERS_EvPrRn =/* tracer conc. in Evap. & Rain */
(PID.TID 0000.0001)                 1.234567000000000E+05
(PID.TID 0000.0001)     ;
(PID.TID 0000.0001)  -----------------------------------
(PID.TID 0000.0001)  tracer number :   65
(PID.TID 0000.0001) PTRACERS_names = /* Tracer short name */
(PID.TID 0000.0001)               'c48'
(PID.TID 0000.0001)     ;
(PID.TID 0000.0001) PTRACERS_long_names = /* Tracer long name */
(PID.TID 0000.0001)               ''
(PID.TID 0000.0001)     ;
(PID.TID 0000.0001) PTRACERS_ioLabel = /* tracer IO Label */
(PID.TID 0000.0001)               '65'
(PID.TID 0000.0001)     ;
(PID.TID 0000.0001) PTRACERS_advScheme = /* Advection Scheme */
(PID.TID 0000.0001)                      33
(PID.TID 0000.0001)     ;
(PID.TID 0000.0001) PTRACERS_SOM_Advection = /* tracer uses SOM advection scheme */
(PID.TID 0000.0001)                   F
(PID.TID 0000.0001)     ;
(PID.TID 0000.0001) PTRACERS_ImplVertAdv = /* implicit vert. advection flag */
(PID.TID 0000.0001)                   F
(PID.TID 0000.0001)     ;
(PID.TID 0000.0001) PTRACERS_diffKh = /* Laplacian Diffusivity */
(PID.TID 0000.0001)                 0.000000000000000E+00
(PID.TID 0000.0001)     ;
(PID.TID 0000.0001) PTRACERS_diffK4 = /* Biharmonic Diffusivity */
(PID.TID 0000.0001)                 0.000000000000000E+00
(PID.TID 0000.0001)     ;
(PID.TID 0000.0001) PTRACERS_diffKrNr = /* Vertical Diffusivity */
(PID.TID 0000.0001)    35 @  1.000000000000000E-05              /* K =  1: 35 */
(PID.TID 0000.0001)     ;
(PID.TID 0000.0001) PTRACERS_useGMRedi = /* apply GM-Redi */
(PID.TID 0000.0001)                   F
(PID.TID 0000.0001)     ;
(PID.TID 0000.0001) PTRACERS_useDWNSLP = /* apply DOWN-SLOPE Flow */
(PID.TID 0000.0001)                   F
(PID.TID 0000.0001)     ;
(PID.TID 0000.0001) PTRACERS_useKPP = /* apply KPP scheme */
(PID.TID 0000.0001)                   F
(PID.TID 0000.0001)     ;
(PID.TID 0000.0001) PTRACERS_ref = /* Reference vertical profile */
(PID.TID 0000.0001)    35 @  0.000000000000000E+00              /* K =  1: 35 */
(PID.TID 0000.0001)     ;
(PID.TID 0000.0001) PTRACERS_EvPrRn =/* tracer conc. in Evap. & Rain */
(PID.TID 0000.0001)                 1.234567000000000E+05
(PID.TID 0000.0001)     ;
(PID.TID 0000.0001)  -----------------------------------
(PID.TID 0000.0001)  tracer number :   66
(PID.TID 0000.0001) PTRACERS_names = /* Tracer short name */
(PID.TID 0000.0001)               'c49'
(PID.TID 0000.0001)     ;
(PID.TID 0000.0001) PTRACERS_long_names = /* Tracer long name */
(PID.TID 0000.0001)               ''
(PID.TID 0000.0001)     ;
(PID.TID 0000.0001) PTRACERS_ioLabel = /* tracer IO Label */
(PID.TID 0000.0001)               '66'
(PID.TID 0000.0001)     ;
(PID.TID 0000.0001) PTRACERS_advScheme = /* Advection Scheme */
(PID.TID 0000.0001)                      33
(PID.TID 0000.0001)     ;
(PID.TID 0000.0001) PTRACERS_SOM_Advection = /* tracer uses SOM advection scheme */
(PID.TID 0000.0001)                   F
(PID.TID 0000.0001)     ;
(PID.TID 0000.0001) PTRACERS_ImplVertAdv = /* implicit vert. advection flag */
(PID.TID 0000.0001)                   F
(PID.TID 0000.0001)     ;
(PID.TID 0000.0001) PTRACERS_diffKh = /* Laplacian Diffusivity */
(PID.TID 0000.0001)                 0.000000000000000E+00
(PID.TID 0000.0001)     ;
(PID.TID 0000.0001) PTRACERS_diffK4 = /* Biharmonic Diffusivity */
(PID.TID 0000.0001)                 0.000000000000000E+00
(PID.TID 0000.0001)     ;
(PID.TID 0000.0001) PTRACERS_diffKrNr = /* Vertical Diffusivity */
(PID.TID 0000.0001)    35 @  1.000000000000000E-05              /* K =  1: 35 */
(PID.TID 0000.0001)     ;
(PID.TID 0000.0001) PTRACERS_useGMRedi = /* apply GM-Redi */
(PID.TID 0000.0001)                   F
(PID.TID 0000.0001)     ;
(PID.TID 0000.0001) PTRACERS_useDWNSLP = /* apply DOWN-SLOPE Flow */
(PID.TID 0000.0001)                   F
(PID.TID 0000.0001)     ;
(PID.TID 0000.0001) PTRACERS_useKPP = /* apply KPP scheme */
(PID.TID 0000.0001)                   F
(PID.TID 0000.0001)     ;
(PID.TID 0000.0001) PTRACERS_ref = /* Reference vertical profile */
(PID.TID 0000.0001)    35 @  0.000000000000000E+00              /* K =  1: 35 */
(PID.TID 0000.0001)     ;
(PID.TID 0000.0001) PTRACERS_EvPrRn =/* tracer conc. in Evap. & Rain */
(PID.TID 0000.0001)                 1.234567000000000E+05
(PID.TID 0000.0001)     ;
(PID.TID 0000.0001)  -----------------------------------
(PID.TID 0000.0001)  tracer number :   67
(PID.TID 0000.0001) PTRACERS_names = /* Tracer short name */
(PID.TID 0000.0001)               'c50'
(PID.TID 0000.0001)     ;
(PID.TID 0000.0001) PTRACERS_long_names = /* Tracer long name */
(PID.TID 0000.0001)               ''
(PID.TID 0000.0001)     ;
(PID.TID 0000.0001) PTRACERS_ioLabel = /* tracer IO Label */
(PID.TID 0000.0001)               '67'
(PID.TID 0000.0001)     ;
(PID.TID 0000.0001) PTRACERS_advScheme = /* Advection Scheme */
(PID.TID 0000.0001)                      33
(PID.TID 0000.0001)     ;
(PID.TID 0000.0001) PTRACERS_SOM_Advection = /* tracer uses SOM advection scheme */
(PID.TID 0000.0001)                   F
(PID.TID 0000.0001)     ;
(PID.TID 0000.0001) PTRACERS_ImplVertAdv = /* implicit vert. advection flag */
(PID.TID 0000.0001)                   F
(PID.TID 0000.0001)     ;
(PID.TID 0000.0001) PTRACERS_diffKh = /* Laplacian Diffusivity */
(PID.TID 0000.0001)                 0.000000000000000E+00
(PID.TID 0000.0001)     ;
(PID.TID 0000.0001) PTRACERS_diffK4 = /* Biharmonic Diffusivity */
(PID.TID 0000.0001)                 0.000000000000000E+00
(PID.TID 0000.0001)     ;
(PID.TID 0000.0001) PTRACERS_diffKrNr = /* Vertical Diffusivity */
(PID.TID 0000.0001)    35 @  1.000000000000000E-05              /* K =  1: 35 */
(PID.TID 0000.0001)     ;
(PID.TID 0000.0001) PTRACERS_useGMRedi = /* apply GM-Redi */
(PID.TID 0000.0001)                   F
(PID.TID 0000.0001)     ;
(PID.TID 0000.0001) PTRACERS_useDWNSLP = /* apply DOWN-SLOPE Flow */
(PID.TID 0000.0001)                   F
(PID.TID 0000.0001)     ;
(PID.TID 0000.0001) PTRACERS_useKPP = /* apply KPP scheme */
(PID.TID 0000.0001)                   F
(PID.TID 0000.0001)     ;
(PID.TID 0000.0001) PTRACERS_ref = /* Reference vertical profile */
(PID.TID 0000.0001)    35 @  0.000000000000000E+00              /* K =  1: 35 */
(PID.TID 0000.0001)     ;
(PID.TID 0000.0001) PTRACERS_EvPrRn =/* tracer conc. in Evap. & Rain */
(PID.TID 0000.0001)                 1.234567000000000E+05
(PID.TID 0000.0001)     ;
(PID.TID 0000.0001)  -----------------------------------
(PID.TID 0000.0001)  tracer number :   68
(PID.TID 0000.0001) PTRACERS_names = /* Tracer short name */
(PID.TID 0000.0001)               'c51'
(PID.TID 0000.0001)     ;
(PID.TID 0000.0001) PTRACERS_long_names = /* Tracer long name */
(PID.TID 0000.0001)               ''
(PID.TID 0000.0001)     ;
(PID.TID 0000.0001) PTRACERS_ioLabel = /* tracer IO Label */
(PID.TID 0000.0001)               '68'
(PID.TID 0000.0001)     ;
(PID.TID 0000.0001) PTRACERS_advScheme = /* Advection Scheme */
(PID.TID 0000.0001)                      33
(PID.TID 0000.0001)     ;
(PID.TID 0000.0001) PTRACERS_SOM_Advection = /* tracer uses SOM advection scheme */
(PID.TID 0000.0001)                   F
(PID.TID 0000.0001)     ;
(PID.TID 0000.0001) PTRACERS_ImplVertAdv = /* implicit vert. advection flag */
(PID.TID 0000.0001)                   F
(PID.TID 0000.0001)     ;
(PID.TID 0000.0001) PTRACERS_diffKh = /* Laplacian Diffusivity */
(PID.TID 0000.0001)                 0.000000000000000E+00
(PID.TID 0000.0001)     ;
(PID.TID 0000.0001) PTRACERS_diffK4 = /* Biharmonic Diffusivity */
(PID.TID 0000.0001)                 0.000000000000000E+00
(PID.TID 0000.0001)     ;
(PID.TID 0000.0001) PTRACERS_diffKrNr = /* Vertical Diffusivity */
(PID.TID 0000.0001)    35 @  1.000000000000000E-05              /* K =  1: 35 */
(PID.TID 0000.0001)     ;
(PID.TID 0000.0001) PTRACERS_useGMRedi = /* apply GM-Redi */
(PID.TID 0000.0001)                   F
(PID.TID 0000.0001)     ;
(PID.TID 0000.0001) PTRACERS_useDWNSLP = /* apply DOWN-SLOPE Flow */
(PID.TID 0000.0001)                   F
(PID.TID 0000.0001)     ;
(PID.TID 0000.0001) PTRACERS_useKPP = /* apply KPP scheme */
(PID.TID 0000.0001)                   F
(PID.TID 0000.0001)     ;
(PID.TID 0000.0001) PTRACERS_ref = /* Reference vertical profile */
(PID.TID 0000.0001)    35 @  0.000000000000000E+00              /* K =  1: 35 */
(PID.TID 0000.0001)     ;
(PID.TID 0000.0001) PTRACERS_EvPrRn =/* tracer conc. in Evap. & Rain */
(PID.TID 0000.0001)                 1.234567000000000E+05
(PID.TID 0000.0001)     ;
(PID.TID 0000.0001)  -----------------------------------
(PID.TID 0000.0001)  tracer number :   69
(PID.TID 0000.0001) PTRACERS_names = /* Tracer short name */
(PID.TID 0000.0001)               'c52'
(PID.TID 0000.0001)     ;
(PID.TID 0000.0001) PTRACERS_long_names = /* Tracer long name */
(PID.TID 0000.0001)               ''
(PID.TID 0000.0001)     ;
(PID.TID 0000.0001) PTRACERS_ioLabel = /* tracer IO Label */
(PID.TID 0000.0001)               '69'
(PID.TID 0000.0001)     ;
(PID.TID 0000.0001) PTRACERS_advScheme = /* Advection Scheme */
(PID.TID 0000.0001)                      33
(PID.TID 0000.0001)     ;
(PID.TID 0000.0001) PTRACERS_SOM_Advection = /* tracer uses SOM advection scheme */
(PID.TID 0000.0001)                   F
(PID.TID 0000.0001)     ;
(PID.TID 0000.0001) PTRACERS_ImplVertAdv = /* implicit vert. advection flag */
(PID.TID 0000.0001)                   F
(PID.TID 0000.0001)     ;
(PID.TID 0000.0001) PTRACERS_diffKh = /* Laplacian Diffusivity */
(PID.TID 0000.0001)                 0.000000000000000E+00
(PID.TID 0000.0001)     ;
(PID.TID 0000.0001) PTRACERS_diffK4 = /* Biharmonic Diffusivity */
(PID.TID 0000.0001)                 0.000000000000000E+00
(PID.TID 0000.0001)     ;
(PID.TID 0000.0001) PTRACERS_diffKrNr = /* Vertical Diffusivity */
(PID.TID 0000.0001)    35 @  1.000000000000000E-05              /* K =  1: 35 */
(PID.TID 0000.0001)     ;
(PID.TID 0000.0001) PTRACERS_useGMRedi = /* apply GM-Redi */
(PID.TID 0000.0001)                   F
(PID.TID 0000.0001)     ;
(PID.TID 0000.0001) PTRACERS_useDWNSLP = /* apply DOWN-SLOPE Flow */
(PID.TID 0000.0001)                   F
(PID.TID 0000.0001)     ;
(PID.TID 0000.0001) PTRACERS_useKPP = /* apply KPP scheme */
(PID.TID 0000.0001)                   F
(PID.TID 0000.0001)     ;
(PID.TID 0000.0001) PTRACERS_ref = /* Reference vertical profile */
(PID.TID 0000.0001)    35 @  0.000000000000000E+00              /* K =  1: 35 */
(PID.TID 0000.0001)     ;
(PID.TID 0000.0001) PTRACERS_EvPrRn =/* tracer conc. in Evap. & Rain */
(PID.TID 0000.0001)                 1.234567000000000E+05
(PID.TID 0000.0001)     ;
(PID.TID 0000.0001)  -----------------------------------
(PID.TID 0000.0001)  tracer number :   70
(PID.TID 0000.0001) PTRACERS_names = /* Tracer short name */
(PID.TID 0000.0001)               'c53'
(PID.TID 0000.0001)     ;
(PID.TID 0000.0001) PTRACERS_long_names = /* Tracer long name */
(PID.TID 0000.0001)               ''
(PID.TID 0000.0001)     ;
(PID.TID 0000.0001) PTRACERS_ioLabel = /* tracer IO Label */
(PID.TID 0000.0001)               '70'
(PID.TID 0000.0001)     ;
(PID.TID 0000.0001) PTRACERS_advScheme = /* Advection Scheme */
(PID.TID 0000.0001)                      33
(PID.TID 0000.0001)     ;
(PID.TID 0000.0001) PTRACERS_SOM_Advection = /* tracer uses SOM advection scheme */
(PID.TID 0000.0001)                   F
(PID.TID 0000.0001)     ;
(PID.TID 0000.0001) PTRACERS_ImplVertAdv = /* implicit vert. advection flag */
(PID.TID 0000.0001)                   F
(PID.TID 0000.0001)     ;
(PID.TID 0000.0001) PTRACERS_diffKh = /* Laplacian Diffusivity */
(PID.TID 0000.0001)                 0.000000000000000E+00
(PID.TID 0000.0001)     ;
(PID.TID 0000.0001) PTRACERS_diffK4 = /* Biharmonic Diffusivity */
(PID.TID 0000.0001)                 0.000000000000000E+00
(PID.TID 0000.0001)     ;
(PID.TID 0000.0001) PTRACERS_diffKrNr = /* Vertical Diffusivity */
(PID.TID 0000.0001)    35 @  1.000000000000000E-05              /* K =  1: 35 */
(PID.TID 0000.0001)     ;
(PID.TID 0000.0001) PTRACERS_useGMRedi = /* apply GM-Redi */
(PID.TID 0000.0001)                   F
(PID.TID 0000.0001)     ;
(PID.TID 0000.0001) PTRACERS_useDWNSLP = /* apply DOWN-SLOPE Flow */
(PID.TID 0000.0001)                   F
(PID.TID 0000.0001)     ;
(PID.TID 0000.0001) PTRACERS_useKPP = /* apply KPP scheme */
(PID.TID 0000.0001)                   F
(PID.TID 0000.0001)     ;
(PID.TID 0000.0001) PTRACERS_ref = /* Reference vertical profile */
(PID.TID 0000.0001)    35 @  0.000000000000000E+00              /* K =  1: 35 */
(PID.TID 0000.0001)     ;
(PID.TID 0000.0001) PTRACERS_EvPrRn =/* tracer conc. in Evap. & Rain */
(PID.TID 0000.0001)                 1.234567000000000E+05
(PID.TID 0000.0001)     ;
(PID.TID 0000.0001)  -----------------------------------
(PID.TID 0000.0001)  tracer number :   71
(PID.TID 0000.0001) PTRACERS_names = /* Tracer short name */
(PID.TID 0000.0001)               'c54'
(PID.TID 0000.0001)     ;
(PID.TID 0000.0001) PTRACERS_long_names = /* Tracer long name */
(PID.TID 0000.0001)               ''
(PID.TID 0000.0001)     ;
(PID.TID 0000.0001) PTRACERS_ioLabel = /* tracer IO Label */
(PID.TID 0000.0001)               '71'
(PID.TID 0000.0001)     ;
(PID.TID 0000.0001) PTRACERS_advScheme = /* Advection Scheme */
(PID.TID 0000.0001)                      33
(PID.TID 0000.0001)     ;
(PID.TID 0000.0001) PTRACERS_SOM_Advection = /* tracer uses SOM advection scheme */
(PID.TID 0000.0001)                   F
(PID.TID 0000.0001)     ;
(PID.TID 0000.0001) PTRACERS_ImplVertAdv = /* implicit vert. advection flag */
(PID.TID 0000.0001)                   F
(PID.TID 0000.0001)     ;
(PID.TID 0000.0001) PTRACERS_diffKh = /* Laplacian Diffusivity */
(PID.TID 0000.0001)                 0.000000000000000E+00
(PID.TID 0000.0001)     ;
(PID.TID 0000.0001) PTRACERS_diffK4 = /* Biharmonic Diffusivity */
(PID.TID 0000.0001)                 0.000000000000000E+00
(PID.TID 0000.0001)     ;
(PID.TID 0000.0001) PTRACERS_diffKrNr = /* Vertical Diffusivity */
(PID.TID 0000.0001)    35 @  1.000000000000000E-05              /* K =  1: 35 */
(PID.TID 0000.0001)     ;
(PID.TID 0000.0001) PTRACERS_useGMRedi = /* apply GM-Redi */
(PID.TID 0000.0001)                   F
(PID.TID 0000.0001)     ;
(PID.TID 0000.0001) PTRACERS_useDWNSLP = /* apply DOWN-SLOPE Flow */
(PID.TID 0000.0001)                   F
(PID.TID 0000.0001)     ;
(PID.TID 0000.0001) PTRACERS_useKPP = /* apply KPP scheme */
(PID.TID 0000.0001)                   F
(PID.TID 0000.0001)     ;
(PID.TID 0000.0001) PTRACERS_ref = /* Reference vertical profile */
(PID.TID 0000.0001)    35 @  0.000000000000000E+00              /* K =  1: 35 */
(PID.TID 0000.0001)     ;
(PID.TID 0000.0001) PTRACERS_EvPrRn =/* tracer conc. in Evap. & Rain */
(PID.TID 0000.0001)                 1.234567000000000E+05
(PID.TID 0000.0001)     ;
(PID.TID 0000.0001)  -----------------------------------
(PID.TID 0000.0001)  tracer number :   72
(PID.TID 0000.0001) PTRACERS_names = /* Tracer short name */
(PID.TID 0000.0001)               'c55'
(PID.TID 0000.0001)     ;
(PID.TID 0000.0001) PTRACERS_long_names = /* Tracer long name */
(PID.TID 0000.0001)               ''
(PID.TID 0000.0001)     ;
(PID.TID 0000.0001) PTRACERS_ioLabel = /* tracer IO Label */
(PID.TID 0000.0001)               '72'
(PID.TID 0000.0001)     ;
(PID.TID 0000.0001) PTRACERS_advScheme = /* Advection Scheme */
(PID.TID 0000.0001)                      33
(PID.TID 0000.0001)     ;
(PID.TID 0000.0001) PTRACERS_SOM_Advection = /* tracer uses SOM advection scheme */
(PID.TID 0000.0001)                   F
(PID.TID 0000.0001)     ;
(PID.TID 0000.0001) PTRACERS_ImplVertAdv = /* implicit vert. advection flag */
(PID.TID 0000.0001)                   F
(PID.TID 0000.0001)     ;
(PID.TID 0000.0001) PTRACERS_diffKh = /* Laplacian Diffusivity */
(PID.TID 0000.0001)                 0.000000000000000E+00
(PID.TID 0000.0001)     ;
(PID.TID 0000.0001) PTRACERS_diffK4 = /* Biharmonic Diffusivity */
(PID.TID 0000.0001)                 0.000000000000000E+00
(PID.TID 0000.0001)     ;
(PID.TID 0000.0001) PTRACERS_diffKrNr = /* Vertical Diffusivity */
(PID.TID 0000.0001)    35 @  1.000000000000000E-05              /* K =  1: 35 */
(PID.TID 0000.0001)     ;
(PID.TID 0000.0001) PTRACERS_useGMRedi = /* apply GM-Redi */
(PID.TID 0000.0001)                   F
(PID.TID 0000.0001)     ;
(PID.TID 0000.0001) PTRACERS_useDWNSLP = /* apply DOWN-SLOPE Flow */
(PID.TID 0000.0001)                   F
(PID.TID 0000.0001)     ;
(PID.TID 0000.0001) PTRACERS_useKPP = /* apply KPP scheme */
(PID.TID 0000.0001)                   F
(PID.TID 0000.0001)     ;
(PID.TID 0000.0001) PTRACERS_ref = /* Reference vertical profile */
(PID.TID 0000.0001)    35 @  0.000000000000000E+00              /* K =  1: 35 */
(PID.TID 0000.0001)     ;
(PID.TID 0000.0001) PTRACERS_EvPrRn =/* tracer conc. in Evap. & Rain */
(PID.TID 0000.0001)                 1.234567000000000E+05
(PID.TID 0000.0001)     ;
(PID.TID 0000.0001)  -----------------------------------
(PID.TID 0000.0001)  tracer number :   73
(PID.TID 0000.0001) PTRACERS_names = /* Tracer short name */
(PID.TID 0000.0001)               'c56'
(PID.TID 0000.0001)     ;
(PID.TID 0000.0001) PTRACERS_long_names = /* Tracer long name */
(PID.TID 0000.0001)               ''
(PID.TID 0000.0001)     ;
(PID.TID 0000.0001) PTRACERS_ioLabel = /* tracer IO Label */
(PID.TID 0000.0001)               '73'
(PID.TID 0000.0001)     ;
(PID.TID 0000.0001) PTRACERS_advScheme = /* Advection Scheme */
(PID.TID 0000.0001)                      33
(PID.TID 0000.0001)     ;
(PID.TID 0000.0001) PTRACERS_SOM_Advection = /* tracer uses SOM advection scheme */
(PID.TID 0000.0001)                   F
(PID.TID 0000.0001)     ;
(PID.TID 0000.0001) PTRACERS_ImplVertAdv = /* implicit vert. advection flag */
(PID.TID 0000.0001)                   F
(PID.TID 0000.0001)     ;
(PID.TID 0000.0001) PTRACERS_diffKh = /* Laplacian Diffusivity */
(PID.TID 0000.0001)                 0.000000000000000E+00
(PID.TID 0000.0001)     ;
(PID.TID 0000.0001) PTRACERS_diffK4 = /* Biharmonic Diffusivity */
(PID.TID 0000.0001)                 0.000000000000000E+00
(PID.TID 0000.0001)     ;
(PID.TID 0000.0001) PTRACERS_diffKrNr = /* Vertical Diffusivity */
(PID.TID 0000.0001)    35 @  1.000000000000000E-05              /* K =  1: 35 */
(PID.TID 0000.0001)     ;
(PID.TID 0000.0001) PTRACERS_useGMRedi = /* apply GM-Redi */
(PID.TID 0000.0001)                   F
(PID.TID 0000.0001)     ;
(PID.TID 0000.0001) PTRACERS_useDWNSLP = /* apply DOWN-SLOPE Flow */
(PID.TID 0000.0001)                   F
(PID.TID 0000.0001)     ;
(PID.TID 0000.0001) PTRACERS_useKPP = /* apply KPP scheme */
(PID.TID 0000.0001)                   F
(PID.TID 0000.0001)     ;
(PID.TID 0000.0001) PTRACERS_ref = /* Reference vertical profile */
(PID.TID 0000.0001)    35 @  0.000000000000000E+00              /* K =  1: 35 */
(PID.TID 0000.0001)     ;
(PID.TID 0000.0001) PTRACERS_EvPrRn =/* tracer conc. in Evap. & Rain */
(PID.TID 0000.0001)                 1.234567000000000E+05
(PID.TID 0000.0001)     ;
(PID.TID 0000.0001)  -----------------------------------
(PID.TID 0000.0001)  tracer number :   74
(PID.TID 0000.0001) PTRACERS_names = /* Tracer short name */
(PID.TID 0000.0001)               'c57'
(PID.TID 0000.0001)     ;
(PID.TID 0000.0001) PTRACERS_long_names = /* Tracer long name */
(PID.TID 0000.0001)               ''
(PID.TID 0000.0001)     ;
(PID.TID 0000.0001) PTRACERS_ioLabel = /* tracer IO Label */
(PID.TID 0000.0001)               '74'
(PID.TID 0000.0001)     ;
(PID.TID 0000.0001) PTRACERS_advScheme = /* Advection Scheme */
(PID.TID 0000.0001)                      33
(PID.TID 0000.0001)     ;
(PID.TID 0000.0001) PTRACERS_SOM_Advection = /* tracer uses SOM advection scheme */
(PID.TID 0000.0001)                   F
(PID.TID 0000.0001)     ;
(PID.TID 0000.0001) PTRACERS_ImplVertAdv = /* implicit vert. advection flag */
(PID.TID 0000.0001)                   F
(PID.TID 0000.0001)     ;
(PID.TID 0000.0001) PTRACERS_diffKh = /* Laplacian Diffusivity */
(PID.TID 0000.0001)                 0.000000000000000E+00
(PID.TID 0000.0001)     ;
(PID.TID 0000.0001) PTRACERS_diffK4 = /* Biharmonic Diffusivity */
(PID.TID 0000.0001)                 0.000000000000000E+00
(PID.TID 0000.0001)     ;
(PID.TID 0000.0001) PTRACERS_diffKrNr = /* Vertical Diffusivity */
(PID.TID 0000.0001)    35 @  1.000000000000000E-05              /* K =  1: 35 */
(PID.TID 0000.0001)     ;
(PID.TID 0000.0001) PTRACERS_useGMRedi = /* apply GM-Redi */
(PID.TID 0000.0001)                   F
(PID.TID 0000.0001)     ;
(PID.TID 0000.0001) PTRACERS_useDWNSLP = /* apply DOWN-SLOPE Flow */
(PID.TID 0000.0001)                   F
(PID.TID 0000.0001)     ;
(PID.TID 0000.0001) PTRACERS_useKPP = /* apply KPP scheme */
(PID.TID 0000.0001)                   F
(PID.TID 0000.0001)     ;
(PID.TID 0000.0001) PTRACERS_ref = /* Reference vertical profile */
(PID.TID 0000.0001)    35 @  0.000000000000000E+00              /* K =  1: 35 */
(PID.TID 0000.0001)     ;
(PID.TID 0000.0001) PTRACERS_EvPrRn =/* tracer conc. in Evap. & Rain */
(PID.TID 0000.0001)                 1.234567000000000E+05
(PID.TID 0000.0001)     ;
(PID.TID 0000.0001)  -----------------------------------
(PID.TID 0000.0001)  tracer number :   75
(PID.TID 0000.0001) PTRACERS_names = /* Tracer short name */
(PID.TID 0000.0001)               'c58'
(PID.TID 0000.0001)     ;
(PID.TID 0000.0001) PTRACERS_long_names = /* Tracer long name */
(PID.TID 0000.0001)               ''
(PID.TID 0000.0001)     ;
(PID.TID 0000.0001) PTRACERS_ioLabel = /* tracer IO Label */
(PID.TID 0000.0001)               '75'
(PID.TID 0000.0001)     ;
(PID.TID 0000.0001) PTRACERS_advScheme = /* Advection Scheme */
(PID.TID 0000.0001)                      33
(PID.TID 0000.0001)     ;
(PID.TID 0000.0001) PTRACERS_SOM_Advection = /* tracer uses SOM advection scheme */
(PID.TID 0000.0001)                   F
(PID.TID 0000.0001)     ;
(PID.TID 0000.0001) PTRACERS_ImplVertAdv = /* implicit vert. advection flag */
(PID.TID 0000.0001)                   F
(PID.TID 0000.0001)     ;
(PID.TID 0000.0001) PTRACERS_diffKh = /* Laplacian Diffusivity */
(PID.TID 0000.0001)                 0.000000000000000E+00
(PID.TID 0000.0001)     ;
(PID.TID 0000.0001) PTRACERS_diffK4 = /* Biharmonic Diffusivity */
(PID.TID 0000.0001)                 0.000000000000000E+00
(PID.TID 0000.0001)     ;
(PID.TID 0000.0001) PTRACERS_diffKrNr = /* Vertical Diffusivity */
(PID.TID 0000.0001)    35 @  1.000000000000000E-05              /* K =  1: 35 */
(PID.TID 0000.0001)     ;
(PID.TID 0000.0001) PTRACERS_useGMRedi = /* apply GM-Redi */
(PID.TID 0000.0001)                   F
(PID.TID 0000.0001)     ;
(PID.TID 0000.0001) PTRACERS_useDWNSLP = /* apply DOWN-SLOPE Flow */
(PID.TID 0000.0001)                   F
(PID.TID 0000.0001)     ;
(PID.TID 0000.0001) PTRACERS_useKPP = /* apply KPP scheme */
(PID.TID 0000.0001)                   F
(PID.TID 0000.0001)     ;
(PID.TID 0000.0001) PTRACERS_ref = /* Reference vertical profile */
(PID.TID 0000.0001)    35 @  0.000000000000000E+00              /* K =  1: 35 */
(PID.TID 0000.0001)     ;
(PID.TID 0000.0001) PTRACERS_EvPrRn =/* tracer conc. in Evap. & Rain */
(PID.TID 0000.0001)                 1.234567000000000E+05
(PID.TID 0000.0001)     ;
(PID.TID 0000.0001)  -----------------------------------
(PID.TID 0000.0001)  tracer number :   76
(PID.TID 0000.0001) PTRACERS_names = /* Tracer short name */
(PID.TID 0000.0001)               'c59'
(PID.TID 0000.0001)     ;
(PID.TID 0000.0001) PTRACERS_long_names = /* Tracer long name */
(PID.TID 0000.0001)               ''
(PID.TID 0000.0001)     ;
(PID.TID 0000.0001) PTRACERS_ioLabel = /* tracer IO Label */
(PID.TID 0000.0001)               '76'
(PID.TID 0000.0001)     ;
(PID.TID 0000.0001) PTRACERS_advScheme = /* Advection Scheme */
(PID.TID 0000.0001)                      33
(PID.TID 0000.0001)     ;
(PID.TID 0000.0001) PTRACERS_SOM_Advection = /* tracer uses SOM advection scheme */
(PID.TID 0000.0001)                   F
(PID.TID 0000.0001)     ;
(PID.TID 0000.0001) PTRACERS_ImplVertAdv = /* implicit vert. advection flag */
(PID.TID 0000.0001)                   F
(PID.TID 0000.0001)     ;
(PID.TID 0000.0001) PTRACERS_diffKh = /* Laplacian Diffusivity */
(PID.TID 0000.0001)                 0.000000000000000E+00
(PID.TID 0000.0001)     ;
(PID.TID 0000.0001) PTRACERS_diffK4 = /* Biharmonic Diffusivity */
(PID.TID 0000.0001)                 0.000000000000000E+00
(PID.TID 0000.0001)     ;
(PID.TID 0000.0001) PTRACERS_diffKrNr = /* Vertical Diffusivity */
(PID.TID 0000.0001)    35 @  1.000000000000000E-05              /* K =  1: 35 */
(PID.TID 0000.0001)     ;
(PID.TID 0000.0001) PTRACERS_useGMRedi = /* apply GM-Redi */
(PID.TID 0000.0001)                   F
(PID.TID 0000.0001)     ;
(PID.TID 0000.0001) PTRACERS_useDWNSLP = /* apply DOWN-SLOPE Flow */
(PID.TID 0000.0001)                   F
(PID.TID 0000.0001)     ;
(PID.TID 0000.0001) PTRACERS_useKPP = /* apply KPP scheme */
(PID.TID 0000.0001)                   F
(PID.TID 0000.0001)     ;
(PID.TID 0000.0001) PTRACERS_ref = /* Reference vertical profile */
(PID.TID 0000.0001)    35 @  0.000000000000000E+00              /* K =  1: 35 */
(PID.TID 0000.0001)     ;
(PID.TID 0000.0001) PTRACERS_EvPrRn =/* tracer conc. in Evap. & Rain */
(PID.TID 0000.0001)                 1.234567000000000E+05
(PID.TID 0000.0001)     ;
(PID.TID 0000.0001)  -----------------------------------
(PID.TID 0000.0001)  tracer number :   77
(PID.TID 0000.0001) PTRACERS_names = /* Tracer short name */
(PID.TID 0000.0001)               'c60'
(PID.TID 0000.0001)     ;
(PID.TID 0000.0001) PTRACERS_long_names = /* Tracer long name */
(PID.TID 0000.0001)               ''
(PID.TID 0000.0001)     ;
(PID.TID 0000.0001) PTRACERS_ioLabel = /* tracer IO Label */
(PID.TID 0000.0001)               '77'
(PID.TID 0000.0001)     ;
(PID.TID 0000.0001) PTRACERS_advScheme = /* Advection Scheme */
(PID.TID 0000.0001)                      33
(PID.TID 0000.0001)     ;
(PID.TID 0000.0001) PTRACERS_SOM_Advection = /* tracer uses SOM advection scheme */
(PID.TID 0000.0001)                   F
(PID.TID 0000.0001)     ;
(PID.TID 0000.0001) PTRACERS_ImplVertAdv = /* implicit vert. advection flag */
(PID.TID 0000.0001)                   F
(PID.TID 0000.0001)     ;
(PID.TID 0000.0001) PTRACERS_diffKh = /* Laplacian Diffusivity */
(PID.TID 0000.0001)                 0.000000000000000E+00
(PID.TID 0000.0001)     ;
(PID.TID 0000.0001) PTRACERS_diffK4 = /* Biharmonic Diffusivity */
(PID.TID 0000.0001)                 0.000000000000000E+00
(PID.TID 0000.0001)     ;
(PID.TID 0000.0001) PTRACERS_diffKrNr = /* Vertical Diffusivity */
(PID.TID 0000.0001)    35 @  1.000000000000000E-05              /* K =  1: 35 */
(PID.TID 0000.0001)     ;
(PID.TID 0000.0001) PTRACERS_useGMRedi = /* apply GM-Redi */
(PID.TID 0000.0001)                   F
(PID.TID 0000.0001)     ;
(PID.TID 0000.0001) PTRACERS_useDWNSLP = /* apply DOWN-SLOPE Flow */
(PID.TID 0000.0001)                   F
(PID.TID 0000.0001)     ;
(PID.TID 0000.0001) PTRACERS_useKPP = /* apply KPP scheme */
(PID.TID 0000.0001)                   F
(PID.TID 0000.0001)     ;
(PID.TID 0000.0001) PTRACERS_ref = /* Reference vertical profile */
(PID.TID 0000.0001)    35 @  0.000000000000000E+00              /* K =  1: 35 */
(PID.TID 0000.0001)     ;
(PID.TID 0000.0001) PTRACERS_EvPrRn =/* tracer conc. in Evap. & Rain */
(PID.TID 0000.0001)                 1.234567000000000E+05
(PID.TID 0000.0001)     ;
(PID.TID 0000.0001)  -----------------------------------
(PID.TID 0000.0001)  tracer number :   78
(PID.TID 0000.0001) PTRACERS_names = /* Tracer short name */
(PID.TID 0000.0001)               'c61'
(PID.TID 0000.0001)     ;
(PID.TID 0000.0001) PTRACERS_long_names = /* Tracer long name */
(PID.TID 0000.0001)               ''
(PID.TID 0000.0001)     ;
(PID.TID 0000.0001) PTRACERS_ioLabel = /* tracer IO Label */
(PID.TID 0000.0001)               '78'
(PID.TID 0000.0001)     ;
(PID.TID 0000.0001) PTRACERS_advScheme = /* Advection Scheme */
(PID.TID 0000.0001)                      33
(PID.TID 0000.0001)     ;
(PID.TID 0000.0001) PTRACERS_SOM_Advection = /* tracer uses SOM advection scheme */
(PID.TID 0000.0001)                   F
(PID.TID 0000.0001)     ;
(PID.TID 0000.0001) PTRACERS_ImplVertAdv = /* implicit vert. advection flag */
(PID.TID 0000.0001)                   F
(PID.TID 0000.0001)     ;
(PID.TID 0000.0001) PTRACERS_diffKh = /* Laplacian Diffusivity */
(PID.TID 0000.0001)                 0.000000000000000E+00
(PID.TID 0000.0001)     ;
(PID.TID 0000.0001) PTRACERS_diffK4 = /* Biharmonic Diffusivity */
(PID.TID 0000.0001)                 0.000000000000000E+00
(PID.TID 0000.0001)     ;
(PID.TID 0000.0001) PTRACERS_diffKrNr = /* Vertical Diffusivity */
(PID.TID 0000.0001)    35 @  1.000000000000000E-05              /* K =  1: 35 */
(PID.TID 0000.0001)     ;
(PID.TID 0000.0001) PTRACERS_useGMRedi = /* apply GM-Redi */
(PID.TID 0000.0001)                   F
(PID.TID 0000.0001)     ;
(PID.TID 0000.0001) PTRACERS_useDWNSLP = /* apply DOWN-SLOPE Flow */
(PID.TID 0000.0001)                   F
(PID.TID 0000.0001)     ;
(PID.TID 0000.0001) PTRACERS_useKPP = /* apply KPP scheme */
(PID.TID 0000.0001)                   F
(PID.TID 0000.0001)     ;
(PID.TID 0000.0001) PTRACERS_ref = /* Reference vertical profile */
(PID.TID 0000.0001)    35 @  0.000000000000000E+00              /* K =  1: 35 */
(PID.TID 0000.0001)     ;
(PID.TID 0000.0001) PTRACERS_EvPrRn =/* tracer conc. in Evap. & Rain */
(PID.TID 0000.0001)                 1.234567000000000E+05
(PID.TID 0000.0001)     ;
(PID.TID 0000.0001)  -----------------------------------
(PID.TID 0000.0001)  tracer number :   79
(PID.TID 0000.0001) PTRACERS_names = /* Tracer short name */
(PID.TID 0000.0001)               'c62'
(PID.TID 0000.0001)     ;
(PID.TID 0000.0001) PTRACERS_long_names = /* Tracer long name */
(PID.TID 0000.0001)               ''
(PID.TID 0000.0001)     ;
(PID.TID 0000.0001) PTRACERS_ioLabel = /* tracer IO Label */
(PID.TID 0000.0001)               '79'
(PID.TID 0000.0001)     ;
(PID.TID 0000.0001) PTRACERS_advScheme = /* Advection Scheme */
(PID.TID 0000.0001)                      33
(PID.TID 0000.0001)     ;
(PID.TID 0000.0001) PTRACERS_SOM_Advection = /* tracer uses SOM advection scheme */
(PID.TID 0000.0001)                   F
(PID.TID 0000.0001)     ;
(PID.TID 0000.0001) PTRACERS_ImplVertAdv = /* implicit vert. advection flag */
(PID.TID 0000.0001)                   F
(PID.TID 0000.0001)     ;
(PID.TID 0000.0001) PTRACERS_diffKh = /* Laplacian Diffusivity */
(PID.TID 0000.0001)                 0.000000000000000E+00
(PID.TID 0000.0001)     ;
(PID.TID 0000.0001) PTRACERS_diffK4 = /* Biharmonic Diffusivity */
(PID.TID 0000.0001)                 0.000000000000000E+00
(PID.TID 0000.0001)     ;
(PID.TID 0000.0001) PTRACERS_diffKrNr = /* Vertical Diffusivity */
(PID.TID 0000.0001)    35 @  1.000000000000000E-05              /* K =  1: 35 */
(PID.TID 0000.0001)     ;
(PID.TID 0000.0001) PTRACERS_useGMRedi = /* apply GM-Redi */
(PID.TID 0000.0001)                   F
(PID.TID 0000.0001)     ;
(PID.TID 0000.0001) PTRACERS_useDWNSLP = /* apply DOWN-SLOPE Flow */
(PID.TID 0000.0001)                   F
(PID.TID 0000.0001)     ;
(PID.TID 0000.0001) PTRACERS_useKPP = /* apply KPP scheme */
(PID.TID 0000.0001)                   F
(PID.TID 0000.0001)     ;
(PID.TID 0000.0001) PTRACERS_ref = /* Reference vertical profile */
(PID.TID 0000.0001)    35 @  0.000000000000000E+00              /* K =  1: 35 */
(PID.TID 0000.0001)     ;
(PID.TID 0000.0001) PTRACERS_EvPrRn =/* tracer conc. in Evap. & Rain */
(PID.TID 0000.0001)                 1.234567000000000E+05
(PID.TID 0000.0001)     ;
(PID.TID 0000.0001)  -----------------------------------
(PID.TID 0000.0001)  tracer number :   80
(PID.TID 0000.0001) PTRACERS_names = /* Tracer short name */
(PID.TID 0000.0001)               'c63'
(PID.TID 0000.0001)     ;
(PID.TID 0000.0001) PTRACERS_long_names = /* Tracer long name */
(PID.TID 0000.0001)               ''
(PID.TID 0000.0001)     ;
(PID.TID 0000.0001) PTRACERS_ioLabel = /* tracer IO Label */
(PID.TID 0000.0001)               '80'
(PID.TID 0000.0001)     ;
(PID.TID 0000.0001) PTRACERS_advScheme = /* Advection Scheme */
(PID.TID 0000.0001)                      33
(PID.TID 0000.0001)     ;
(PID.TID 0000.0001) PTRACERS_SOM_Advection = /* tracer uses SOM advection scheme */
(PID.TID 0000.0001)                   F
(PID.TID 0000.0001)     ;
(PID.TID 0000.0001) PTRACERS_ImplVertAdv = /* implicit vert. advection flag */
(PID.TID 0000.0001)                   F
(PID.TID 0000.0001)     ;
(PID.TID 0000.0001) PTRACERS_diffKh = /* Laplacian Diffusivity */
(PID.TID 0000.0001)                 0.000000000000000E+00
(PID.TID 0000.0001)     ;
(PID.TID 0000.0001) PTRACERS_diffK4 = /* Biharmonic Diffusivity */
(PID.TID 0000.0001)                 0.000000000000000E+00
(PID.TID 0000.0001)     ;
(PID.TID 0000.0001) PTRACERS_diffKrNr = /* Vertical Diffusivity */
(PID.TID 0000.0001)    35 @  1.000000000000000E-05              /* K =  1: 35 */
(PID.TID 0000.0001)     ;
(PID.TID 0000.0001) PTRACERS_useGMRedi = /* apply GM-Redi */
(PID.TID 0000.0001)                   F
(PID.TID 0000.0001)     ;
(PID.TID 0000.0001) PTRACERS_useDWNSLP = /* apply DOWN-SLOPE Flow */
(PID.TID 0000.0001)                   F
(PID.TID 0000.0001)     ;
(PID.TID 0000.0001) PTRACERS_useKPP = /* apply KPP scheme */
(PID.TID 0000.0001)                   F
(PID.TID 0000.0001)     ;
(PID.TID 0000.0001) PTRACERS_ref = /* Reference vertical profile */
(PID.TID 0000.0001)    35 @  0.000000000000000E+00              /* K =  1: 35 */
(PID.TID 0000.0001)     ;
(PID.TID 0000.0001) PTRACERS_EvPrRn =/* tracer conc. in Evap. & Rain */
(PID.TID 0000.0001)                 1.234567000000000E+05
(PID.TID 0000.0001)     ;
(PID.TID 0000.0001)  -----------------------------------
(PID.TID 0000.0001)  tracer number :   81
(PID.TID 0000.0001) PTRACERS_names = /* Tracer short name */
(PID.TID 0000.0001)               'c64'
(PID.TID 0000.0001)     ;
(PID.TID 0000.0001) PTRACERS_long_names = /* Tracer long name */
(PID.TID 0000.0001)               ''
(PID.TID 0000.0001)     ;
(PID.TID 0000.0001) PTRACERS_ioLabel = /* tracer IO Label */
(PID.TID 0000.0001)               '81'
(PID.TID 0000.0001)     ;
(PID.TID 0000.0001) PTRACERS_advScheme = /* Advection Scheme */
(PID.TID 0000.0001)                      33
(PID.TID 0000.0001)     ;
(PID.TID 0000.0001) PTRACERS_SOM_Advection = /* tracer uses SOM advection scheme */
(PID.TID 0000.0001)                   F
(PID.TID 0000.0001)     ;
(PID.TID 0000.0001) PTRACERS_ImplVertAdv = /* implicit vert. advection flag */
(PID.TID 0000.0001)                   F
(PID.TID 0000.0001)     ;
(PID.TID 0000.0001) PTRACERS_diffKh = /* Laplacian Diffusivity */
(PID.TID 0000.0001)                 0.000000000000000E+00
(PID.TID 0000.0001)     ;
(PID.TID 0000.0001) PTRACERS_diffK4 = /* Biharmonic Diffusivity */
(PID.TID 0000.0001)                 0.000000000000000E+00
(PID.TID 0000.0001)     ;
(PID.TID 0000.0001) PTRACERS_diffKrNr = /* Vertical Diffusivity */
(PID.TID 0000.0001)    35 @  1.000000000000000E-05              /* K =  1: 35 */
(PID.TID 0000.0001)     ;
(PID.TID 0000.0001) PTRACERS_useGMRedi = /* apply GM-Redi */
(PID.TID 0000.0001)                   F
(PID.TID 0000.0001)     ;
(PID.TID 0000.0001) PTRACERS_useDWNSLP = /* apply DOWN-SLOPE Flow */
(PID.TID 0000.0001)                   F
(PID.TID 0000.0001)     ;
(PID.TID 0000.0001) PTRACERS_useKPP = /* apply KPP scheme */
(PID.TID 0000.0001)                   F
(PID.TID 0000.0001)     ;
(PID.TID 0000.0001) PTRACERS_ref = /* Reference vertical profile */
(PID.TID 0000.0001)    35 @  0.000000000000000E+00              /* K =  1: 35 */
(PID.TID 0000.0001)     ;
(PID.TID 0000.0001) PTRACERS_EvPrRn =/* tracer conc. in Evap. & Rain */
(PID.TID 0000.0001)                 1.234567000000000E+05
(PID.TID 0000.0001)     ;
(PID.TID 0000.0001)  -----------------------------------
(PID.TID 0000.0001)  tracer number :   82
(PID.TID 0000.0001) PTRACERS_names = /* Tracer short name */
(PID.TID 0000.0001)               'c65'
(PID.TID 0000.0001)     ;
(PID.TID 0000.0001) PTRACERS_long_names = /* Tracer long name */
(PID.TID 0000.0001)               ''
(PID.TID 0000.0001)     ;
(PID.TID 0000.0001) PTRACERS_ioLabel = /* tracer IO Label */
(PID.TID 0000.0001)               '82'
(PID.TID 0000.0001)     ;
(PID.TID 0000.0001) PTRACERS_advScheme = /* Advection Scheme */
(PID.TID 0000.0001)                      33
(PID.TID 0000.0001)     ;
(PID.TID 0000.0001) PTRACERS_SOM_Advection = /* tracer uses SOM advection scheme */
(PID.TID 0000.0001)                   F
(PID.TID 0000.0001)     ;
(PID.TID 0000.0001) PTRACERS_ImplVertAdv = /* implicit vert. advection flag */
(PID.TID 0000.0001)                   F
(PID.TID 0000.0001)     ;
(PID.TID 0000.0001) PTRACERS_diffKh = /* Laplacian Diffusivity */
(PID.TID 0000.0001)                 0.000000000000000E+00
(PID.TID 0000.0001)     ;
(PID.TID 0000.0001) PTRACERS_diffK4 = /* Biharmonic Diffusivity */
(PID.TID 0000.0001)                 0.000000000000000E+00
(PID.TID 0000.0001)     ;
(PID.TID 0000.0001) PTRACERS_diffKrNr = /* Vertical Diffusivity */
(PID.TID 0000.0001)    35 @  1.000000000000000E-05              /* K =  1: 35 */
(PID.TID 0000.0001)     ;
(PID.TID 0000.0001) PTRACERS_useGMRedi = /* apply GM-Redi */
(PID.TID 0000.0001)                   F
(PID.TID 0000.0001)     ;
(PID.TID 0000.0001) PTRACERS_useDWNSLP = /* apply DOWN-SLOPE Flow */
(PID.TID 0000.0001)                   F
(PID.TID 0000.0001)     ;
(PID.TID 0000.0001) PTRACERS_useKPP = /* apply KPP scheme */
(PID.TID 0000.0001)                   F
(PID.TID 0000.0001)     ;
(PID.TID 0000.0001) PTRACERS_ref = /* Reference vertical profile */
(PID.TID 0000.0001)    35 @  0.000000000000000E+00              /* K =  1: 35 */
(PID.TID 0000.0001)     ;
(PID.TID 0000.0001) PTRACERS_EvPrRn =/* tracer conc. in Evap. & Rain */
(PID.TID 0000.0001)                 1.234567000000000E+05
(PID.TID 0000.0001)     ;
(PID.TID 0000.0001)  -----------------------------------
(PID.TID 0000.0001)  tracer number :   83
(PID.TID 0000.0001) PTRACERS_names = /* Tracer short name */
(PID.TID 0000.0001)               'c66'
(PID.TID 0000.0001)     ;
(PID.TID 0000.0001) PTRACERS_long_names = /* Tracer long name */
(PID.TID 0000.0001)               ''
(PID.TID 0000.0001)     ;
(PID.TID 0000.0001) PTRACERS_ioLabel = /* tracer IO Label */
(PID.TID 0000.0001)               '83'
(PID.TID 0000.0001)     ;
(PID.TID 0000.0001) PTRACERS_advScheme = /* Advection Scheme */
(PID.TID 0000.0001)                      33
(PID.TID 0000.0001)     ;
(PID.TID 0000.0001) PTRACERS_SOM_Advection = /* tracer uses SOM advection scheme */
(PID.TID 0000.0001)                   F
(PID.TID 0000.0001)     ;
(PID.TID 0000.0001) PTRACERS_ImplVertAdv = /* implicit vert. advection flag */
(PID.TID 0000.0001)                   F
(PID.TID 0000.0001)     ;
(PID.TID 0000.0001) PTRACERS_diffKh = /* Laplacian Diffusivity */
(PID.TID 0000.0001)                 0.000000000000000E+00
(PID.TID 0000.0001)     ;
(PID.TID 0000.0001) PTRACERS_diffK4 = /* Biharmonic Diffusivity */
(PID.TID 0000.0001)                 0.000000000000000E+00
(PID.TID 0000.0001)     ;
(PID.TID 0000.0001) PTRACERS_diffKrNr = /* Vertical Diffusivity */
(PID.TID 0000.0001)    35 @  1.000000000000000E-05              /* K =  1: 35 */
(PID.TID 0000.0001)     ;
(PID.TID 0000.0001) PTRACERS_useGMRedi = /* apply GM-Redi */
(PID.TID 0000.0001)                   F
(PID.TID 0000.0001)     ;
(PID.TID 0000.0001) PTRACERS_useDWNSLP = /* apply DOWN-SLOPE Flow */
(PID.TID 0000.0001)                   F
(PID.TID 0000.0001)     ;
(PID.TID 0000.0001) PTRACERS_useKPP = /* apply KPP scheme */
(PID.TID 0000.0001)                   F
(PID.TID 0000.0001)     ;
(PID.TID 0000.0001) PTRACERS_ref = /* Reference vertical profile */
(PID.TID 0000.0001)    35 @  0.000000000000000E+00              /* K =  1: 35 */
(PID.TID 0000.0001)     ;
(PID.TID 0000.0001) PTRACERS_EvPrRn =/* tracer conc. in Evap. & Rain */
(PID.TID 0000.0001)                 1.234567000000000E+05
(PID.TID 0000.0001)     ;
(PID.TID 0000.0001)  -----------------------------------
(PID.TID 0000.0001)  tracer number :   84
(PID.TID 0000.0001) PTRACERS_names = /* Tracer short name */
(PID.TID 0000.0001)               'c67'
(PID.TID 0000.0001)     ;
(PID.TID 0000.0001) PTRACERS_long_names = /* Tracer long name */
(PID.TID 0000.0001)               ''
(PID.TID 0000.0001)     ;
(PID.TID 0000.0001) PTRACERS_ioLabel = /* tracer IO Label */
(PID.TID 0000.0001)               '84'
(PID.TID 0000.0001)     ;
(PID.TID 0000.0001) PTRACERS_advScheme = /* Advection Scheme */
(PID.TID 0000.0001)                      33
(PID.TID 0000.0001)     ;
(PID.TID 0000.0001) PTRACERS_SOM_Advection = /* tracer uses SOM advection scheme */
(PID.TID 0000.0001)                   F
(PID.TID 0000.0001)     ;
(PID.TID 0000.0001) PTRACERS_ImplVertAdv = /* implicit vert. advection flag */
(PID.TID 0000.0001)                   F
(PID.TID 0000.0001)     ;
(PID.TID 0000.0001) PTRACERS_diffKh = /* Laplacian Diffusivity */
(PID.TID 0000.0001)                 0.000000000000000E+00
(PID.TID 0000.0001)     ;
(PID.TID 0000.0001) PTRACERS_diffK4 = /* Biharmonic Diffusivity */
(PID.TID 0000.0001)                 0.000000000000000E+00
(PID.TID 0000.0001)     ;
(PID.TID 0000.0001) PTRACERS_diffKrNr = /* Vertical Diffusivity */
(PID.TID 0000.0001)    35 @  1.000000000000000E-05              /* K =  1: 35 */
(PID.TID 0000.0001)     ;
(PID.TID 0000.0001) PTRACERS_useGMRedi = /* apply GM-Redi */
(PID.TID 0000.0001)                   F
(PID.TID 0000.0001)     ;
(PID.TID 0000.0001) PTRACERS_useDWNSLP = /* apply DOWN-SLOPE Flow */
(PID.TID 0000.0001)                   F
(PID.TID 0000.0001)     ;
(PID.TID 0000.0001) PTRACERS_useKPP = /* apply KPP scheme */
(PID.TID 0000.0001)                   F
(PID.TID 0000.0001)     ;
(PID.TID 0000.0001) PTRACERS_ref = /* Reference vertical profile */
(PID.TID 0000.0001)    35 @  0.000000000000000E+00              /* K =  1: 35 */
(PID.TID 0000.0001)     ;
(PID.TID 0000.0001) PTRACERS_EvPrRn =/* tracer conc. in Evap. & Rain */
(PID.TID 0000.0001)                 1.234567000000000E+05
(PID.TID 0000.0001)     ;
(PID.TID 0000.0001)  -----------------------------------
(PID.TID 0000.0001)  tracer number :   85
(PID.TID 0000.0001) PTRACERS_names = /* Tracer short name */
(PID.TID 0000.0001)               'c68'
(PID.TID 0000.0001)     ;
(PID.TID 0000.0001) PTRACERS_long_names = /* Tracer long name */
(PID.TID 0000.0001)               ''
(PID.TID 0000.0001)     ;
(PID.TID 0000.0001) PTRACERS_ioLabel = /* tracer IO Label */
(PID.TID 0000.0001)               '85'
(PID.TID 0000.0001)     ;
(PID.TID 0000.0001) PTRACERS_advScheme = /* Advection Scheme */
(PID.TID 0000.0001)                      33
(PID.TID 0000.0001)     ;
(PID.TID 0000.0001) PTRACERS_SOM_Advection = /* tracer uses SOM advection scheme */
(PID.TID 0000.0001)                   F
(PID.TID 0000.0001)     ;
(PID.TID 0000.0001) PTRACERS_ImplVertAdv = /* implicit vert. advection flag */
(PID.TID 0000.0001)                   F
(PID.TID 0000.0001)     ;
(PID.TID 0000.0001) PTRACERS_diffKh = /* Laplacian Diffusivity */
(PID.TID 0000.0001)                 0.000000000000000E+00
(PID.TID 0000.0001)     ;
(PID.TID 0000.0001) PTRACERS_diffK4 = /* Biharmonic Diffusivity */
(PID.TID 0000.0001)                 0.000000000000000E+00
(PID.TID 0000.0001)     ;
(PID.TID 0000.0001) PTRACERS_diffKrNr = /* Vertical Diffusivity */
(PID.TID 0000.0001)    35 @  1.000000000000000E-05              /* K =  1: 35 */
(PID.TID 0000.0001)     ;
(PID.TID 0000.0001) PTRACERS_useGMRedi = /* apply GM-Redi */
(PID.TID 0000.0001)                   F
(PID.TID 0000.0001)     ;
(PID.TID 0000.0001) PTRACERS_useDWNSLP = /* apply DOWN-SLOPE Flow */
(PID.TID 0000.0001)                   F
(PID.TID 0000.0001)     ;
(PID.TID 0000.0001) PTRACERS_useKPP = /* apply KPP scheme */
(PID.TID 0000.0001)                   F
(PID.TID 0000.0001)     ;
(PID.TID 0000.0001) PTRACERS_ref = /* Reference vertical profile */
(PID.TID 0000.0001)    35 @  0.000000000000000E+00              /* K =  1: 35 */
(PID.TID 0000.0001)     ;
(PID.TID 0000.0001) PTRACERS_EvPrRn =/* tracer conc. in Evap. & Rain */
(PID.TID 0000.0001)                 1.234567000000000E+05
(PID.TID 0000.0001)     ;
(PID.TID 0000.0001)  -----------------------------------
(PID.TID 0000.0001)  tracer number :   86
(PID.TID 0000.0001) PTRACERS_names = /* Tracer short name */
(PID.TID 0000.0001)               'c69'
(PID.TID 0000.0001)     ;
(PID.TID 0000.0001) PTRACERS_long_names = /* Tracer long name */
(PID.TID 0000.0001)               ''
(PID.TID 0000.0001)     ;
(PID.TID 0000.0001) PTRACERS_ioLabel = /* tracer IO Label */
(PID.TID 0000.0001)               '86'
(PID.TID 0000.0001)     ;
(PID.TID 0000.0001) PTRACERS_advScheme = /* Advection Scheme */
(PID.TID 0000.0001)                      33
(PID.TID 0000.0001)     ;
(PID.TID 0000.0001) PTRACERS_SOM_Advection = /* tracer uses SOM advection scheme */
(PID.TID 0000.0001)                   F
(PID.TID 0000.0001)     ;
(PID.TID 0000.0001) PTRACERS_ImplVertAdv = /* implicit vert. advection flag */
(PID.TID 0000.0001)                   F
(PID.TID 0000.0001)     ;
(PID.TID 0000.0001) PTRACERS_diffKh = /* Laplacian Diffusivity */
(PID.TID 0000.0001)                 0.000000000000000E+00
(PID.TID 0000.0001)     ;
(PID.TID 0000.0001) PTRACERS_diffK4 = /* Biharmonic Diffusivity */
(PID.TID 0000.0001)                 0.000000000000000E+00
(PID.TID 0000.0001)     ;
(PID.TID 0000.0001) PTRACERS_diffKrNr = /* Vertical Diffusivity */
(PID.TID 0000.0001)    35 @  1.000000000000000E-05              /* K =  1: 35 */
(PID.TID 0000.0001)     ;
(PID.TID 0000.0001) PTRACERS_useGMRedi = /* apply GM-Redi */
(PID.TID 0000.0001)                   F
(PID.TID 0000.0001)     ;
(PID.TID 0000.0001) PTRACERS_useDWNSLP = /* apply DOWN-SLOPE Flow */
(PID.TID 0000.0001)                   F
(PID.TID 0000.0001)     ;
(PID.TID 0000.0001) PTRACERS_useKPP = /* apply KPP scheme */
(PID.TID 0000.0001)                   F
(PID.TID 0000.0001)     ;
(PID.TID 0000.0001) PTRACERS_ref = /* Reference vertical profile */
(PID.TID 0000.0001)    35 @  0.000000000000000E+00              /* K =  1: 35 */
(PID.TID 0000.0001)     ;
(PID.TID 0000.0001) PTRACERS_EvPrRn =/* tracer conc. in Evap. & Rain */
(PID.TID 0000.0001)                 1.234567000000000E+05
(PID.TID 0000.0001)     ;
(PID.TID 0000.0001)  -----------------------------------
(PID.TID 0000.0001)  tracer number :   87
(PID.TID 0000.0001) PTRACERS_names = /* Tracer short name */
(PID.TID 0000.0001)               'c70'
(PID.TID 0000.0001)     ;
(PID.TID 0000.0001) PTRACERS_long_names = /* Tracer long name */
(PID.TID 0000.0001)               ''
(PID.TID 0000.0001)     ;
(PID.TID 0000.0001) PTRACERS_ioLabel = /* tracer IO Label */
(PID.TID 0000.0001)               '87'
(PID.TID 0000.0001)     ;
(PID.TID 0000.0001) PTRACERS_advScheme = /* Advection Scheme */
(PID.TID 0000.0001)                      33
(PID.TID 0000.0001)     ;
(PID.TID 0000.0001) PTRACERS_SOM_Advection = /* tracer uses SOM advection scheme */
(PID.TID 0000.0001)                   F
(PID.TID 0000.0001)     ;
(PID.TID 0000.0001) PTRACERS_ImplVertAdv = /* implicit vert. advection flag */
(PID.TID 0000.0001)                   F
(PID.TID 0000.0001)     ;
(PID.TID 0000.0001) PTRACERS_diffKh = /* Laplacian Diffusivity */
(PID.TID 0000.0001)                 0.000000000000000E+00
(PID.TID 0000.0001)     ;
(PID.TID 0000.0001) PTRACERS_diffK4 = /* Biharmonic Diffusivity */
(PID.TID 0000.0001)                 0.000000000000000E+00
(PID.TID 0000.0001)     ;
(PID.TID 0000.0001) PTRACERS_diffKrNr = /* Vertical Diffusivity */
(PID.TID 0000.0001)    35 @  1.000000000000000E-05              /* K =  1: 35 */
(PID.TID 0000.0001)     ;
(PID.TID 0000.0001) PTRACERS_useGMRedi = /* apply GM-Redi */
(PID.TID 0000.0001)                   F
(PID.TID 0000.0001)     ;
(PID.TID 0000.0001) PTRACERS_useDWNSLP = /* apply DOWN-SLOPE Flow */
(PID.TID 0000.0001)                   F
(PID.TID 0000.0001)     ;
(PID.TID 0000.0001) PTRACERS_useKPP = /* apply KPP scheme */
(PID.TID 0000.0001)                   F
(PID.TID 0000.0001)     ;
(PID.TID 0000.0001) PTRACERS_ref = /* Reference vertical profile */
(PID.TID 0000.0001)    35 @  0.000000000000000E+00              /* K =  1: 35 */
(PID.TID 0000.0001)     ;
(PID.TID 0000.0001) PTRACERS_EvPrRn =/* tracer conc. in Evap. & Rain */
(PID.TID 0000.0001)                 1.234567000000000E+05
(PID.TID 0000.0001)     ;
(PID.TID 0000.0001)  -----------------------------------
(PID.TID 0000.0001)  tracer number :   88
(PID.TID 0000.0001) PTRACERS_names = /* Tracer short name */
(PID.TID 0000.0001)               'c71'
(PID.TID 0000.0001)     ;
(PID.TID 0000.0001) PTRACERS_long_names = /* Tracer long name */
(PID.TID 0000.0001)               ''
(PID.TID 0000.0001)     ;
(PID.TID 0000.0001) PTRACERS_ioLabel = /* tracer IO Label */
(PID.TID 0000.0001)               '88'
(PID.TID 0000.0001)     ;
(PID.TID 0000.0001) PTRACERS_advScheme = /* Advection Scheme */
(PID.TID 0000.0001)                      33
(PID.TID 0000.0001)     ;
(PID.TID 0000.0001) PTRACERS_SOM_Advection = /* tracer uses SOM advection scheme */
(PID.TID 0000.0001)                   F
(PID.TID 0000.0001)     ;
(PID.TID 0000.0001) PTRACERS_ImplVertAdv = /* implicit vert. advection flag */
(PID.TID 0000.0001)                   F
(PID.TID 0000.0001)     ;
(PID.TID 0000.0001) PTRACERS_diffKh = /* Laplacian Diffusivity */
(PID.TID 0000.0001)                 0.000000000000000E+00
(PID.TID 0000.0001)     ;
(PID.TID 0000.0001) PTRACERS_diffK4 = /* Biharmonic Diffusivity */
(PID.TID 0000.0001)                 0.000000000000000E+00
(PID.TID 0000.0001)     ;
(PID.TID 0000.0001) PTRACERS_diffKrNr = /* Vertical Diffusivity */
(PID.TID 0000.0001)    35 @  1.000000000000000E-05              /* K =  1: 35 */
(PID.TID 0000.0001)     ;
(PID.TID 0000.0001) PTRACERS_useGMRedi = /* apply GM-Redi */
(PID.TID 0000.0001)                   F
(PID.TID 0000.0001)     ;
(PID.TID 0000.0001) PTRACERS_useDWNSLP = /* apply DOWN-SLOPE Flow */
(PID.TID 0000.0001)                   F
(PID.TID 0000.0001)     ;
(PID.TID 0000.0001) PTRACERS_useKPP = /* apply KPP scheme */
(PID.TID 0000.0001)                   F
(PID.TID 0000.0001)     ;
(PID.TID 0000.0001) PTRACERS_ref = /* Reference vertical profile */
(PID.TID 0000.0001)    35 @  0.000000000000000E+00              /* K =  1: 35 */
(PID.TID 0000.0001)     ;
(PID.TID 0000.0001) PTRACERS_EvPrRn =/* tracer conc. in Evap. & Rain */
(PID.TID 0000.0001)                 1.234567000000000E+05
(PID.TID 0000.0001)     ;
(PID.TID 0000.0001)  -----------------------------------
(PID.TID 0000.0001)  tracer number :   89
(PID.TID 0000.0001) PTRACERS_names = /* Tracer short name */
(PID.TID 0000.0001)               'c72'
(PID.TID 0000.0001)     ;
(PID.TID 0000.0001) PTRACERS_long_names = /* Tracer long name */
(PID.TID 0000.0001)               ''
(PID.TID 0000.0001)     ;
(PID.TID 0000.0001) PTRACERS_ioLabel = /* tracer IO Label */
(PID.TID 0000.0001)               '89'
(PID.TID 0000.0001)     ;
(PID.TID 0000.0001) PTRACERS_advScheme = /* Advection Scheme */
(PID.TID 0000.0001)                      33
(PID.TID 0000.0001)     ;
(PID.TID 0000.0001) PTRACERS_SOM_Advection = /* tracer uses SOM advection scheme */
(PID.TID 0000.0001)                   F
(PID.TID 0000.0001)     ;
(PID.TID 0000.0001) PTRACERS_ImplVertAdv = /* implicit vert. advection flag */
(PID.TID 0000.0001)                   F
(PID.TID 0000.0001)     ;
(PID.TID 0000.0001) PTRACERS_diffKh = /* Laplacian Diffusivity */
(PID.TID 0000.0001)                 0.000000000000000E+00
(PID.TID 0000.0001)     ;
(PID.TID 0000.0001) PTRACERS_diffK4 = /* Biharmonic Diffusivity */
(PID.TID 0000.0001)                 0.000000000000000E+00
(PID.TID 0000.0001)     ;
(PID.TID 0000.0001) PTRACERS_diffKrNr = /* Vertical Diffusivity */
(PID.TID 0000.0001)    35 @  1.000000000000000E-05              /* K =  1: 35 */
(PID.TID 0000.0001)     ;
(PID.TID 0000.0001) PTRACERS_useGMRedi = /* apply GM-Redi */
(PID.TID 0000.0001)                   F
(PID.TID 0000.0001)     ;
(PID.TID 0000.0001) PTRACERS_useDWNSLP = /* apply DOWN-SLOPE Flow */
(PID.TID 0000.0001)                   F
(PID.TID 0000.0001)     ;
(PID.TID 0000.0001) PTRACERS_useKPP = /* apply KPP scheme */
(PID.TID 0000.0001)                   F
(PID.TID 0000.0001)     ;
(PID.TID 0000.0001) PTRACERS_ref = /* Reference vertical profile */
(PID.TID 0000.0001)    35 @  0.000000000000000E+00              /* K =  1: 35 */
(PID.TID 0000.0001)     ;
(PID.TID 0000.0001) PTRACERS_EvPrRn =/* tracer conc. in Evap. & Rain */
(PID.TID 0000.0001)                 1.234567000000000E+05
(PID.TID 0000.0001)     ;
(PID.TID 0000.0001)  -----------------------------------
(PID.TID 0000.0001)  tracer number :   90
(PID.TID 0000.0001) PTRACERS_names = /* Tracer short name */
(PID.TID 0000.0001)               'c73'
(PID.TID 0000.0001)     ;
(PID.TID 0000.0001) PTRACERS_long_names = /* Tracer long name */
(PID.TID 0000.0001)               ''
(PID.TID 0000.0001)     ;
(PID.TID 0000.0001) PTRACERS_ioLabel = /* tracer IO Label */
(PID.TID 0000.0001)               '90'
(PID.TID 0000.0001)     ;
(PID.TID 0000.0001) PTRACERS_advScheme = /* Advection Scheme */
(PID.TID 0000.0001)                      33
(PID.TID 0000.0001)     ;
(PID.TID 0000.0001) PTRACERS_SOM_Advection = /* tracer uses SOM advection scheme */
(PID.TID 0000.0001)                   F
(PID.TID 0000.0001)     ;
(PID.TID 0000.0001) PTRACERS_ImplVertAdv = /* implicit vert. advection flag */
(PID.TID 0000.0001)                   F
(PID.TID 0000.0001)     ;
(PID.TID 0000.0001) PTRACERS_diffKh = /* Laplacian Diffusivity */
(PID.TID 0000.0001)                 0.000000000000000E+00
(PID.TID 0000.0001)     ;
(PID.TID 0000.0001) PTRACERS_diffK4 = /* Biharmonic Diffusivity */
(PID.TID 0000.0001)                 0.000000000000000E+00
(PID.TID 0000.0001)     ;
(PID.TID 0000.0001) PTRACERS_diffKrNr = /* Vertical Diffusivity */
(PID.TID 0000.0001)    35 @  1.000000000000000E-05              /* K =  1: 35 */
(PID.TID 0000.0001)     ;
(PID.TID 0000.0001) PTRACERS_useGMRedi = /* apply GM-Redi */
(PID.TID 0000.0001)                   F
(PID.TID 0000.0001)     ;
(PID.TID 0000.0001) PTRACERS_useDWNSLP = /* apply DOWN-SLOPE Flow */
(PID.TID 0000.0001)                   F
(PID.TID 0000.0001)     ;
(PID.TID 0000.0001) PTRACERS_useKPP = /* apply KPP scheme */
(PID.TID 0000.0001)                   F
(PID.TID 0000.0001)     ;
(PID.TID 0000.0001) PTRACERS_ref = /* Reference vertical profile */
(PID.TID 0000.0001)    35 @  0.000000000000000E+00              /* K =  1: 35 */
(PID.TID 0000.0001)     ;
(PID.TID 0000.0001) PTRACERS_EvPrRn =/* tracer conc. in Evap. & Rain */
(PID.TID 0000.0001)                 1.234567000000000E+05
(PID.TID 0000.0001)     ;
(PID.TID 0000.0001)  -----------------------------------
(PID.TID 0000.0001)  tracer number :   91
(PID.TID 0000.0001) PTRACERS_names = /* Tracer short name */
(PID.TID 0000.0001)               'c74'
(PID.TID 0000.0001)     ;
(PID.TID 0000.0001) PTRACERS_long_names = /* Tracer long name */
(PID.TID 0000.0001)               ''
(PID.TID 0000.0001)     ;
(PID.TID 0000.0001) PTRACERS_ioLabel = /* tracer IO Label */
(PID.TID 0000.0001)               '91'
(PID.TID 0000.0001)     ;
(PID.TID 0000.0001) PTRACERS_advScheme = /* Advection Scheme */
(PID.TID 0000.0001)                      33
(PID.TID 0000.0001)     ;
(PID.TID 0000.0001) PTRACERS_SOM_Advection = /* tracer uses SOM advection scheme */
(PID.TID 0000.0001)                   F
(PID.TID 0000.0001)     ;
(PID.TID 0000.0001) PTRACERS_ImplVertAdv = /* implicit vert. advection flag */
(PID.TID 0000.0001)                   F
(PID.TID 0000.0001)     ;
(PID.TID 0000.0001) PTRACERS_diffKh = /* Laplacian Diffusivity */
(PID.TID 0000.0001)                 0.000000000000000E+00
(PID.TID 0000.0001)     ;
(PID.TID 0000.0001) PTRACERS_diffK4 = /* Biharmonic Diffusivity */
(PID.TID 0000.0001)                 0.000000000000000E+00
(PID.TID 0000.0001)     ;
(PID.TID 0000.0001) PTRACERS_diffKrNr = /* Vertical Diffusivity */
(PID.TID 0000.0001)    35 @  1.000000000000000E-05              /* K =  1: 35 */
(PID.TID 0000.0001)     ;
(PID.TID 0000.0001) PTRACERS_useGMRedi = /* apply GM-Redi */
(PID.TID 0000.0001)                   F
(PID.TID 0000.0001)     ;
(PID.TID 0000.0001) PTRACERS_useDWNSLP = /* apply DOWN-SLOPE Flow */
(PID.TID 0000.0001)                   F
(PID.TID 0000.0001)     ;
(PID.TID 0000.0001) PTRACERS_useKPP = /* apply KPP scheme */
(PID.TID 0000.0001)                   F
(PID.TID 0000.0001)     ;
(PID.TID 0000.0001) PTRACERS_ref = /* Reference vertical profile */
(PID.TID 0000.0001)    35 @  0.000000000000000E+00              /* K =  1: 35 */
(PID.TID 0000.0001)     ;
(PID.TID 0000.0001) PTRACERS_EvPrRn =/* tracer conc. in Evap. & Rain */
(PID.TID 0000.0001)                 1.234567000000000E+05
(PID.TID 0000.0001)     ;
(PID.TID 0000.0001)  -----------------------------------
(PID.TID 0000.0001)  tracer number :   92
(PID.TID 0000.0001) PTRACERS_names = /* Tracer short name */
(PID.TID 0000.0001)               'c75'
(PID.TID 0000.0001)     ;
(PID.TID 0000.0001) PTRACERS_long_names = /* Tracer long name */
(PID.TID 0000.0001)               ''
(PID.TID 0000.0001)     ;
(PID.TID 0000.0001) PTRACERS_ioLabel = /* tracer IO Label */
(PID.TID 0000.0001)               '92'
(PID.TID 0000.0001)     ;
(PID.TID 0000.0001) PTRACERS_advScheme = /* Advection Scheme */
(PID.TID 0000.0001)                      33
(PID.TID 0000.0001)     ;
(PID.TID 0000.0001) PTRACERS_SOM_Advection = /* tracer uses SOM advection scheme */
(PID.TID 0000.0001)                   F
(PID.TID 0000.0001)     ;
(PID.TID 0000.0001) PTRACERS_ImplVertAdv = /* implicit vert. advection flag */
(PID.TID 0000.0001)                   F
(PID.TID 0000.0001)     ;
(PID.TID 0000.0001) PTRACERS_diffKh = /* Laplacian Diffusivity */
(PID.TID 0000.0001)                 0.000000000000000E+00
(PID.TID 0000.0001)     ;
(PID.TID 0000.0001) PTRACERS_diffK4 = /* Biharmonic Diffusivity */
(PID.TID 0000.0001)                 0.000000000000000E+00
(PID.TID 0000.0001)     ;
(PID.TID 0000.0001) PTRACERS_diffKrNr = /* Vertical Diffusivity */
(PID.TID 0000.0001)    35 @  1.000000000000000E-05              /* K =  1: 35 */
(PID.TID 0000.0001)     ;
(PID.TID 0000.0001) PTRACERS_useGMRedi = /* apply GM-Redi */
(PID.TID 0000.0001)                   F
(PID.TID 0000.0001)     ;
(PID.TID 0000.0001) PTRACERS_useDWNSLP = /* apply DOWN-SLOPE Flow */
(PID.TID 0000.0001)                   F
(PID.TID 0000.0001)     ;
(PID.TID 0000.0001) PTRACERS_useKPP = /* apply KPP scheme */
(PID.TID 0000.0001)                   F
(PID.TID 0000.0001)     ;
(PID.TID 0000.0001) PTRACERS_ref = /* Reference vertical profile */
(PID.TID 0000.0001)    35 @  0.000000000000000E+00              /* K =  1: 35 */
(PID.TID 0000.0001)     ;
(PID.TID 0000.0001) PTRACERS_EvPrRn =/* tracer conc. in Evap. & Rain */
(PID.TID 0000.0001)                 1.234567000000000E+05
(PID.TID 0000.0001)     ;
(PID.TID 0000.0001)  -----------------------------------
(PID.TID 0000.0001)  tracer number :   93
(PID.TID 0000.0001) PTRACERS_names = /* Tracer short name */
(PID.TID 0000.0001)               'c76'
(PID.TID 0000.0001)     ;
(PID.TID 0000.0001) PTRACERS_long_names = /* Tracer long name */
(PID.TID 0000.0001)               ''
(PID.TID 0000.0001)     ;
(PID.TID 0000.0001) PTRACERS_ioLabel = /* tracer IO Label */
(PID.TID 0000.0001)               '93'
(PID.TID 0000.0001)     ;
(PID.TID 0000.0001) PTRACERS_advScheme = /* Advection Scheme */
(PID.TID 0000.0001)                      33
(PID.TID 0000.0001)     ;
(PID.TID 0000.0001) PTRACERS_SOM_Advection = /* tracer uses SOM advection scheme */
(PID.TID 0000.0001)                   F
(PID.TID 0000.0001)     ;
(PID.TID 0000.0001) PTRACERS_ImplVertAdv = /* implicit vert. advection flag */
(PID.TID 0000.0001)                   F
(PID.TID 0000.0001)     ;
(PID.TID 0000.0001) PTRACERS_diffKh = /* Laplacian Diffusivity */
(PID.TID 0000.0001)                 0.000000000000000E+00
(PID.TID 0000.0001)     ;
(PID.TID 0000.0001) PTRACERS_diffK4 = /* Biharmonic Diffusivity */
(PID.TID 0000.0001)                 0.000000000000000E+00
(PID.TID 0000.0001)     ;
(PID.TID 0000.0001) PTRACERS_diffKrNr = /* Vertical Diffusivity */
(PID.TID 0000.0001)    35 @  1.000000000000000E-05              /* K =  1: 35 */
(PID.TID 0000.0001)     ;
(PID.TID 0000.0001) PTRACERS_useGMRedi = /* apply GM-Redi */
(PID.TID 0000.0001)                   F
(PID.TID 0000.0001)     ;
(PID.TID 0000.0001) PTRACERS_useDWNSLP = /* apply DOWN-SLOPE Flow */
(PID.TID 0000.0001)                   F
(PID.TID 0000.0001)     ;
(PID.TID 0000.0001) PTRACERS_useKPP = /* apply KPP scheme */
(PID.TID 0000.0001)                   F
(PID.TID 0000.0001)     ;
(PID.TID 0000.0001) PTRACERS_ref = /* Reference vertical profile */
(PID.TID 0000.0001)    35 @  0.000000000000000E+00              /* K =  1: 35 */
(PID.TID 0000.0001)     ;
(PID.TID 0000.0001) PTRACERS_EvPrRn =/* tracer conc. in Evap. & Rain */
(PID.TID 0000.0001)                 1.234567000000000E+05
(PID.TID 0000.0001)     ;
(PID.TID 0000.0001)  -----------------------------------
(PID.TID 0000.0001)  tracer number :   94
(PID.TID 0000.0001) PTRACERS_names = /* Tracer short name */
(PID.TID 0000.0001)               'c77'
(PID.TID 0000.0001)     ;
(PID.TID 0000.0001) PTRACERS_long_names = /* Tracer long name */
(PID.TID 0000.0001)               ''
(PID.TID 0000.0001)     ;
(PID.TID 0000.0001) PTRACERS_ioLabel = /* tracer IO Label */
(PID.TID 0000.0001)               '94'
(PID.TID 0000.0001)     ;
(PID.TID 0000.0001) PTRACERS_advScheme = /* Advection Scheme */
(PID.TID 0000.0001)                      33
(PID.TID 0000.0001)     ;
(PID.TID 0000.0001) PTRACERS_SOM_Advection = /* tracer uses SOM advection scheme */
(PID.TID 0000.0001)                   F
(PID.TID 0000.0001)     ;
(PID.TID 0000.0001) PTRACERS_ImplVertAdv = /* implicit vert. advection flag */
(PID.TID 0000.0001)                   F
(PID.TID 0000.0001)     ;
(PID.TID 0000.0001) PTRACERS_diffKh = /* Laplacian Diffusivity */
(PID.TID 0000.0001)                 0.000000000000000E+00
(PID.TID 0000.0001)     ;
(PID.TID 0000.0001) PTRACERS_diffK4 = /* Biharmonic Diffusivity */
(PID.TID 0000.0001)                 0.000000000000000E+00
(PID.TID 0000.0001)     ;
(PID.TID 0000.0001) PTRACERS_diffKrNr = /* Vertical Diffusivity */
(PID.TID 0000.0001)    35 @  1.000000000000000E-05              /* K =  1: 35 */
(PID.TID 0000.0001)     ;
(PID.TID 0000.0001) PTRACERS_useGMRedi = /* apply GM-Redi */
(PID.TID 0000.0001)                   F
(PID.TID 0000.0001)     ;
(PID.TID 0000.0001) PTRACERS_useDWNSLP = /* apply DOWN-SLOPE Flow */
(PID.TID 0000.0001)                   F
(PID.TID 0000.0001)     ;
(PID.TID 0000.0001) PTRACERS_useKPP = /* apply KPP scheme */
(PID.TID 0000.0001)                   F
(PID.TID 0000.0001)     ;
(PID.TID 0000.0001) PTRACERS_ref = /* Reference vertical profile */
(PID.TID 0000.0001)    35 @  0.000000000000000E+00              /* K =  1: 35 */
(PID.TID 0000.0001)     ;
(PID.TID 0000.0001) PTRACERS_EvPrRn =/* tracer conc. in Evap. & Rain */
(PID.TID 0000.0001)                 1.234567000000000E+05
(PID.TID 0000.0001)     ;
(PID.TID 0000.0001)  -----------------------------------
(PID.TID 0000.0001)  tracer number :   95
(PID.TID 0000.0001) PTRACERS_names = /* Tracer short name */
(PID.TID 0000.0001)               'c78'
(PID.TID 0000.0001)     ;
(PID.TID 0000.0001) PTRACERS_long_names = /* Tracer long name */
(PID.TID 0000.0001)               ''
(PID.TID 0000.0001)     ;
(PID.TID 0000.0001) PTRACERS_ioLabel = /* tracer IO Label */
(PID.TID 0000.0001)               '95'
(PID.TID 0000.0001)     ;
(PID.TID 0000.0001) PTRACERS_advScheme = /* Advection Scheme */
(PID.TID 0000.0001)                      33
(PID.TID 0000.0001)     ;
(PID.TID 0000.0001) PTRACERS_SOM_Advection = /* tracer uses SOM advection scheme */
(PID.TID 0000.0001)                   F
(PID.TID 0000.0001)     ;
(PID.TID 0000.0001) PTRACERS_ImplVertAdv = /* implicit vert. advection flag */
(PID.TID 0000.0001)                   F
(PID.TID 0000.0001)     ;
(PID.TID 0000.0001) PTRACERS_diffKh = /* Laplacian Diffusivity */
(PID.TID 0000.0001)                 0.000000000000000E+00
(PID.TID 0000.0001)     ;
(PID.TID 0000.0001) PTRACERS_diffK4 = /* Biharmonic Diffusivity */
(PID.TID 0000.0001)                 0.000000000000000E+00
(PID.TID 0000.0001)     ;
(PID.TID 0000.0001) PTRACERS_diffKrNr = /* Vertical Diffusivity */
(PID.TID 0000.0001)    35 @  1.000000000000000E-05              /* K =  1: 35 */
(PID.TID 0000.0001)     ;
(PID.TID 0000.0001) PTRACERS_useGMRedi = /* apply GM-Redi */
(PID.TID 0000.0001)                   F
(PID.TID 0000.0001)     ;
(PID.TID 0000.0001) PTRACERS_useDWNSLP = /* apply DOWN-SLOPE Flow */
(PID.TID 0000.0001)                   F
(PID.TID 0000.0001)     ;
(PID.TID 0000.0001) PTRACERS_useKPP = /* apply KPP scheme */
(PID.TID 0000.0001)                   F
(PID.TID 0000.0001)     ;
(PID.TID 0000.0001) PTRACERS_ref = /* Reference vertical profile */
(PID.TID 0000.0001)    35 @  0.000000000000000E+00              /* K =  1: 35 */
(PID.TID 0000.0001)     ;
(PID.TID 0000.0001) PTRACERS_EvPrRn =/* tracer conc. in Evap. & Rain */
(PID.TID 0000.0001)                 1.234567000000000E+05
(PID.TID 0000.0001)     ;
(PID.TID 0000.0001)  -----------------------------------
(PID.TID 0000.0001)  tracer number :   96
(PID.TID 0000.0001) PTRACERS_names = /* Tracer short name */
(PID.TID 0000.0001)               'zc1'
(PID.TID 0000.0001)     ;
(PID.TID 0000.0001) PTRACERS_long_names = /* Tracer long name */
(PID.TID 0000.0001)               ''
(PID.TID 0000.0001)     ;
(PID.TID 0000.0001) PTRACERS_ioLabel = /* tracer IO Label */
(PID.TID 0000.0001)               '96'
(PID.TID 0000.0001)     ;
(PID.TID 0000.0001) PTRACERS_advScheme = /* Advection Scheme */
(PID.TID 0000.0001)                      33
(PID.TID 0000.0001)     ;
(PID.TID 0000.0001) PTRACERS_SOM_Advection = /* tracer uses SOM advection scheme */
(PID.TID 0000.0001)                   F
(PID.TID 0000.0001)     ;
(PID.TID 0000.0001) PTRACERS_ImplVertAdv = /* implicit vert. advection flag */
(PID.TID 0000.0001)                   F
(PID.TID 0000.0001)     ;
(PID.TID 0000.0001) PTRACERS_diffKh = /* Laplacian Diffusivity */
(PID.TID 0000.0001)                 0.000000000000000E+00
(PID.TID 0000.0001)     ;
(PID.TID 0000.0001) PTRACERS_diffK4 = /* Biharmonic Diffusivity */
(PID.TID 0000.0001)                 0.000000000000000E+00
(PID.TID 0000.0001)     ;
(PID.TID 0000.0001) PTRACERS_diffKrNr = /* Vertical Diffusivity */
(PID.TID 0000.0001)    35 @  1.000000000000000E-05              /* K =  1: 35 */
(PID.TID 0000.0001)     ;
(PID.TID 0000.0001) PTRACERS_useGMRedi = /* apply GM-Redi */
(PID.TID 0000.0001)                   F
(PID.TID 0000.0001)     ;
(PID.TID 0000.0001) PTRACERS_useDWNSLP = /* apply DOWN-SLOPE Flow */
(PID.TID 0000.0001)                   F
(PID.TID 0000.0001)     ;
(PID.TID 0000.0001) PTRACERS_useKPP = /* apply KPP scheme */
(PID.TID 0000.0001)                   F
(PID.TID 0000.0001)     ;
(PID.TID 0000.0001) PTRACERS_ref = /* Reference vertical profile */
(PID.TID 0000.0001)    35 @  0.000000000000000E+00              /* K =  1: 35 */
(PID.TID 0000.0001)     ;
(PID.TID 0000.0001) PTRACERS_EvPrRn =/* tracer conc. in Evap. & Rain */
(PID.TID 0000.0001)                 1.234567000000000E+05
(PID.TID 0000.0001)     ;
(PID.TID 0000.0001)  -----------------------------------
(PID.TID 0000.0001)  tracer number :   97
(PID.TID 0000.0001) PTRACERS_names = /* Tracer short name */
(PID.TID 0000.0001)               'zc2'
(PID.TID 0000.0001)     ;
(PID.TID 0000.0001) PTRACERS_long_names = /* Tracer long name */
(PID.TID 0000.0001)               ''
(PID.TID 0000.0001)     ;
(PID.TID 0000.0001) PTRACERS_ioLabel = /* tracer IO Label */
(PID.TID 0000.0001)               '97'
(PID.TID 0000.0001)     ;
(PID.TID 0000.0001) PTRACERS_advScheme = /* Advection Scheme */
(PID.TID 0000.0001)                      33
(PID.TID 0000.0001)     ;
(PID.TID 0000.0001) PTRACERS_SOM_Advection = /* tracer uses SOM advection scheme */
(PID.TID 0000.0001)                   F
(PID.TID 0000.0001)     ;
(PID.TID 0000.0001) PTRACERS_ImplVertAdv = /* implicit vert. advection flag */
(PID.TID 0000.0001)                   F
(PID.TID 0000.0001)     ;
(PID.TID 0000.0001) PTRACERS_diffKh = /* Laplacian Diffusivity */
(PID.TID 0000.0001)                 0.000000000000000E+00
(PID.TID 0000.0001)     ;
(PID.TID 0000.0001) PTRACERS_diffK4 = /* Biharmonic Diffusivity */
(PID.TID 0000.0001)                 0.000000000000000E+00
(PID.TID 0000.0001)     ;
(PID.TID 0000.0001) PTRACERS_diffKrNr = /* Vertical Diffusivity */
(PID.TID 0000.0001)    35 @  1.000000000000000E-05              /* K =  1: 35 */
(PID.TID 0000.0001)     ;
(PID.TID 0000.0001) PTRACERS_useGMRedi = /* apply GM-Redi */
(PID.TID 0000.0001)                   F
(PID.TID 0000.0001)     ;
(PID.TID 0000.0001) PTRACERS_useDWNSLP = /* apply DOWN-SLOPE Flow */
(PID.TID 0000.0001)                   F
(PID.TID 0000.0001)     ;
(PID.TID 0000.0001) PTRACERS_useKPP = /* apply KPP scheme */
(PID.TID 0000.0001)                   F
(PID.TID 0000.0001)     ;
(PID.TID 0000.0001) PTRACERS_ref = /* Reference vertical profile */
(PID.TID 0000.0001)    35 @  0.000000000000000E+00              /* K =  1: 35 */
(PID.TID 0000.0001)     ;
(PID.TID 0000.0001) PTRACERS_EvPrRn =/* tracer conc. in Evap. & Rain */
(PID.TID 0000.0001)                 1.234567000000000E+05
(PID.TID 0000.0001)     ;
(PID.TID 0000.0001)  -----------------------------------
(PID.TID 0000.0001) GCHEM_CHECK: #define ALLOW_GCHEM
(PID.TID 0000.0001) DARWIN_CHECK: #define ALLOW_DARWIN
(PID.TID 0000.0001) DARWIN_CHECK: iPtr darwin   PTRACERS_names
(PID.TID 0000.0001) DARWIN_CHECK:    1 DIC      DIC
(PID.TID 0000.0001) DARWIN_CHECK:    2 NH4      NH4
(PID.TID 0000.0001) DARWIN_CHECK:    3 NO2      NO2
(PID.TID 0000.0001) DARWIN_CHECK:    4 NO3      NO3
(PID.TID 0000.0001) DARWIN_CHECK:    5 PO4      PO4
(PID.TID 0000.0001) DARWIN_CHECK:    6 SiO2     SiO2
(PID.TID 0000.0001) DARWIN_CHECK:    7 FeT      FeT
(PID.TID 0000.0001) DARWIN_CHECK:    8 DOC      DOC
(PID.TID 0000.0001) DARWIN_CHECK:    9 DON      DON
(PID.TID 0000.0001) DARWIN_CHECK:   10 DOP      DOP
(PID.TID 0000.0001) DARWIN_CHECK:   11 DOFe     DOFe
(PID.TID 0000.0001) DARWIN_CHECK:   12 POC      POC
(PID.TID 0000.0001) DARWIN_CHECK:   13 PON      PON
(PID.TID 0000.0001) DARWIN_CHECK:   14 POP      POP
(PID.TID 0000.0001) DARWIN_CHECK:   15 POSi     POSi
(PID.TID 0000.0001) DARWIN_CHECK:   16 POFe     POFe
(PID.TID 0000.0001) DARWIN_CHECK:   17 PIC      PIC
(PID.TID 0000.0001) DARWIN_CHECK:   18 c    (1) c01
(PID.TID 0000.0001) DARWIN_CHECK:   19 c    (2) c02
(PID.TID 0000.0001) DARWIN_CHECK:   20 c    (3) c03
(PID.TID 0000.0001) DARWIN_CHECK:   21 c    (4) c04
(PID.TID 0000.0001) DARWIN_CHECK:   22 c    (5) c05
(PID.TID 0000.0001) DARWIN_CHECK:   23 c    (6) c06
(PID.TID 0000.0001) DARWIN_CHECK:   24 c    (7) c07
(PID.TID 0000.0001) DARWIN_CHECK:   25 c    (8) c08
(PID.TID 0000.0001) DARWIN_CHECK:   26 c    (9) c09
(PID.TID 0000.0001) DARWIN_CHECK:   27 c    (*) c10
(PID.TID 0000.0001) DARWIN_CHECK:   28 c    (*) c11
(PID.TID 0000.0001) DARWIN_CHECK:   29 c    (*) c12
(PID.TID 0000.0001) DARWIN_CHECK:   30 c    (*) c13
(PID.TID 0000.0001) DARWIN_CHECK:   31 c    (*) c14
(PID.TID 0000.0001) DARWIN_CHECK:   32 c    (*) c15
(PID.TID 0000.0001) DARWIN_CHECK:   33 c    (*) c16
(PID.TID 0000.0001) DARWIN_CHECK:   34 c    (*) c17
(PID.TID 0000.0001) DARWIN_CHECK:   35 c    (*) c18
(PID.TID 0000.0001) DARWIN_CHECK:   36 c    (*) c19
(PID.TID 0000.0001) DARWIN_CHECK:   37 c    (*) c20
(PID.TID 0000.0001) DARWIN_CHECK:   38 c    (*) c21
(PID.TID 0000.0001) DARWIN_CHECK:   39 c    (*) c22
(PID.TID 0000.0001) DARWIN_CHECK:   40 c    (*) c23
(PID.TID 0000.0001) DARWIN_CHECK:   41 c    (*) c24
(PID.TID 0000.0001) DARWIN_CHECK:   42 c    (*) c25
(PID.TID 0000.0001) DARWIN_CHECK:   43 c    (*) c26
(PID.TID 0000.0001) DARWIN_CHECK:   44 c    (*) c27
(PID.TID 0000.0001) DARWIN_CHECK:   45 c    (*) c28
(PID.TID 0000.0001) DARWIN_CHECK:   46 c    (*) c29
(PID.TID 0000.0001) DARWIN_CHECK:   47 c    (*) c30
(PID.TID 0000.0001) DARWIN_CHECK:   48 c    (*) c31
(PID.TID 0000.0001) DARWIN_CHECK:   49 c    (*) c32
(PID.TID 0000.0001) DARWIN_CHECK:   50 c    (*) c33
(PID.TID 0000.0001) DARWIN_CHECK:   51 c    (*) c34
(PID.TID 0000.0001) DARWIN_CHECK:   52 c    (*) c35
(PID.TID 0000.0001) DARWIN_CHECK:   53 c    (*) c36
(PID.TID 0000.0001) DARWIN_CHECK:   54 c    (*) c37
(PID.TID 0000.0001) DARWIN_CHECK:   55 c    (*) c38
(PID.TID 0000.0001) DARWIN_CHECK:   56 c    (*) c39
(PID.TID 0000.0001) DARWIN_CHECK:   57 c    (*) c40
(PID.TID 0000.0001) DARWIN_CHECK:   58 c    (*) c41
(PID.TID 0000.0001) DARWIN_CHECK:   59 c    (*) c42
(PID.TID 0000.0001) DARWIN_CHECK:   60 c    (*) c43
(PID.TID 0000.0001) DARWIN_CHECK:   61 c    (*) c44
(PID.TID 0000.0001) DARWIN_CHECK:   62 c    (*) c45
(PID.TID 0000.0001) DARWIN_CHECK:   63 c    (*) c46
(PID.TID 0000.0001) DARWIN_CHECK:   64 c    (*) c47
(PID.TID 0000.0001) DARWIN_CHECK:   65 c    (*) c48
(PID.TID 0000.0001) DARWIN_CHECK:   66 c    (*) c49
(PID.TID 0000.0001) DARWIN_CHECK:   67 c    (*) c50
(PID.TID 0000.0001) DARWIN_CHECK:   68 c    (*) c51
(PID.TID 0000.0001) DARWIN_CHECK:   69 c    (*) c52
(PID.TID 0000.0001) DARWIN_CHECK:   70 c    (*) c53
(PID.TID 0000.0001) DARWIN_CHECK:   71 c    (*) c54
(PID.TID 0000.0001) DARWIN_CHECK:   72 c    (*) c55
(PID.TID 0000.0001) DARWIN_CHECK:   73 c    (*) c56
(PID.TID 0000.0001) DARWIN_CHECK:   74 c    (*) c57
(PID.TID 0000.0001) DARWIN_CHECK:   75 c    (*) c58
(PID.TID 0000.0001) DARWIN_CHECK:   76 c    (*) c59
(PID.TID 0000.0001) DARWIN_CHECK:   77 c    (*) c60
(PID.TID 0000.0001) DARWIN_CHECK:   78 c    (*) c61
(PID.TID 0000.0001) DARWIN_CHECK:   79 c    (*) c62
(PID.TID 0000.0001) DARWIN_CHECK:   80 c    (*) c63
(PID.TID 0000.0001) DARWIN_CHECK:   81 c    (*) c64
(PID.TID 0000.0001) DARWIN_CHECK:   82 c    (*) c65
(PID.TID 0000.0001) DARWIN_CHECK:   83 c    (*) c66
(PID.TID 0000.0001) DARWIN_CHECK:   84 c    (*) c67
(PID.TID 0000.0001) DARWIN_CHECK:   85 c    (*) c68
(PID.TID 0000.0001) DARWIN_CHECK:   86 c    (*) c69
(PID.TID 0000.0001) DARWIN_CHECK:   87 c    (*) c70
(PID.TID 0000.0001) DARWIN_CHECK:   88 c    (*) c71
(PID.TID 0000.0001) DARWIN_CHECK:   89 c    (*) c72
(PID.TID 0000.0001) DARWIN_CHECK:   90 c    (*) c73
(PID.TID 0000.0001) DARWIN_CHECK:   91 c    (*) c74
(PID.TID 0000.0001) DARWIN_CHECK:   92 c    (*) c75
(PID.TID 0000.0001) DARWIN_CHECK:   93 c    (*) c76
(PID.TID 0000.0001) DARWIN_CHECK:   94 c    (*) c77
(PID.TID 0000.0001) DARWIN_CHECK:   95 c    (*) c78
(PID.TID 0000.0001) DARWIN_CHECK:   96 c    (*) zc1
(PID.TID 0000.0001) DARWIN_CHECK:   97 c    (*) zc2
(PID.TID 0000.0001) GAD_CHECK: #define ALLOW_GENERIC_ADVDIFF
(PID.TID 0000.0001) // =======================================================
(PID.TID 0000.0001) // Check Model config. (CONFIG_CHECK):
(PID.TID 0000.0001) // CONFIG_CHECK : Normal End
(PID.TID 0000.0001) // =======================================================
(PID.TID 0000.0001) 
(PID.TID 0000.0001)  MDS_READ_FIELD: opening global file: ../input/input/loc1_temp_janprof.bin
(PID.TID 0000.0001)  MDS_READ_FIELD: opening global file: ../input/input/salt_uniform.bin
(PID.TID 0000.0001) Start initial hydrostatic pressure computation
(PID.TID 0000.0001) Pressure is predetermined for buoyancyRelation OCEANIC
(PID.TID 0000.0001) 
(PID.TID 0000.0001)  MDS_READ_FIELD: opening global file: ../input/input/loc1_temp_monsurf.bin
(PID.TID 0000.0001)  write diagnostics summary to file ioUnit:      6
Iter.Nb:         0 ; Time(s):  0.0000000000000E+00
------------------------------------------------------------------------
2D/3D diagnostics: Number of lists:     1
------------------------------------------------------------------------
listId=    1 ; file name: darwin
 nFlds, nActive,       freq     &     phase        , nLev               
  125  |  125  |      3600.000000         0.000000 |  35
 levels:   1   2   3   4   5   6   7   8   9  10  11  12  13  14  15  16  17  18  19  20  21  22  23  24  25
 levels:  26  27  28  29  30  31  32  33  34  35
 diag# | name   |   ipt  |  iMate | kLev|   count |   mate.C|           
   140 |TRAC01  |      1 |      0 |  35 |       0 |
   152 |TRAC02  |     36 |      0 |  35 |       0 |
   164 |TRAC03  |     71 |      0 |  35 |       0 |
   176 |TRAC04  |    106 |      0 |  35 |       0 |
   188 |TRAC05  |    141 |      0 |  35 |       0 |
   200 |TRAC06  |    176 |      0 |  35 |       0 |
   212 |TRAC07  |    211 |      0 |  35 |       0 |
   224 |TRAC08  |    246 |      0 |  35 |       0 |
   236 |TRAC09  |    281 |      0 |  35 |       0 |
   248 |TRAC10  |    316 |      0 |  35 |       0 |
   260 |TRAC11  |    351 |      0 |  35 |       0 |
   272 |TRAC12  |    386 |      0 |  35 |       0 |
   284 |TRAC13  |    421 |      0 |  35 |       0 |
   296 |TRAC14  |    456 |      0 |  35 |       0 |
   308 |TRAC15  |    491 |      0 |  35 |       0 |
   320 |TRAC16  |    526 |      0 |  35 |       0 |
   332 |TRAC17  |    561 |      0 |  35 |       0 |
   344 |TRAC18  |    596 |      0 |  35 |       0 |
   356 |TRAC19  |    631 |      0 |  35 |       0 |
   368 |TRAC20  |    666 |      0 |  35 |       0 |
   380 |TRAC21  |    701 |      0 |  35 |       0 |
   392 |TRAC22  |    736 |      0 |  35 |       0 |
   404 |TRAC23  |    771 |      0 |  35 |       0 |
   416 |TRAC24  |    806 |      0 |  35 |       0 |
   428 |TRAC25  |    841 |      0 |  35 |       0 |
   440 |TRAC26  |    876 |      0 |  35 |       0 |
   452 |TRAC27  |    911 |      0 |  35 |       0 |
   464 |TRAC28  |    946 |      0 |  35 |       0 |
   476 |TRAC29  |    981 |      0 |  35 |       0 |
   488 |TRAC30  |   1016 |      0 |  35 |       0 |
   500 |TRAC31  |   1051 |      0 |  35 |       0 |
   512 |TRAC32  |   1086 |      0 |  35 |       0 |
   524 |TRAC33  |   1121 |      0 |  35 |       0 |
   536 |TRAC34  |   1156 |      0 |  35 |       0 |
   548 |TRAC35  |   1191 |      0 |  35 |       0 |
   560 |TRAC36  |   1226 |      0 |  35 |       0 |
   572 |TRAC37  |   1261 |      0 |  35 |       0 |
   584 |TRAC38  |   1296 |      0 |  35 |       0 |
   596 |TRAC39  |   1331 |      0 |  35 |       0 |
   608 |TRAC40  |   1366 |      0 |  35 |       0 |
   620 |TRAC41  |   1401 |      0 |  35 |       0 |
   632 |TRAC42  |   1436 |      0 |  35 |       0 |
   644 |TRAC43  |   1471 |      0 |  35 |       0 |
   656 |TRAC44  |   1506 |      0 |  35 |       0 |
   668 |TRAC45  |   1541 |      0 |  35 |       0 |
   680 |TRAC46  |   1576 |      0 |  35 |       0 |
   692 |TRAC47  |   1611 |      0 |  35 |       0 |
   704 |TRAC48  |   1646 |      0 |  35 |       0 |
   716 |TRAC49  |   1681 |      0 |  35 |       0 |
   728 |TRAC50  |   1716 |      0 |  35 |       0 |
   740 |TRAC51  |   1751 |      0 |  35 |       0 |
   752 |TRAC52  |   1786 |      0 |  35 |       0 |
   764 |TRAC53  |   1821 |      0 |  35 |       0 |
   776 |TRAC54  |   1856 |      0 |  35 |       0 |
   788 |TRAC55  |   1891 |      0 |  35 |       0 |
   800 |TRAC56  |   1926 |      0 |  35 |       0 |
   812 |TRAC57  |   1961 |      0 |  35 |       0 |
   824 |TRAC58  |   1996 |      0 |  35 |       0 |
   836 |TRAC59  |   2031 |      0 |  35 |       0 |
   848 |TRAC60  |   2066 |      0 |  35 |       0 |
   860 |TRAC61  |   2101 |      0 |  35 |       0 |
   872 |TRAC62  |   2136 |      0 |  35 |       0 |
   884 |TRAC63  |   2171 |      0 |  35 |       0 |
   896 |TRAC64  |   2206 |      0 |  35 |       0 |
   908 |TRAC65  |   2241 |      0 |  35 |       0 |
   920 |TRAC66  |   2276 |      0 |  35 |       0 |
   932 |TRAC67  |   2311 |      0 |  35 |       0 |
   944 |TRAC68  |   2346 |      0 |  35 |       0 |
   956 |TRAC69  |   2381 |      0 |  35 |       0 |
   968 |TRAC70  |   2416 |      0 |  35 |       0 |
   980 |TRAC71  |   2451 |      0 |  35 |       0 |
   992 |TRAC72  |   2486 |      0 |  35 |       0 |
  1004 |TRAC73  |   2521 |      0 |  35 |       0 |
  1016 |TRAC74  |   2556 |      0 |  35 |       0 |
  1028 |TRAC75  |   2591 |      0 |  35 |       0 |
  1040 |TRAC76  |   2626 |      0 |  35 |       0 |
  1052 |TRAC77  |   2661 |      0 |  35 |       0 |
  1064 |TRAC78  |   2696 |      0 |  35 |       0 |
  1076 |TRAC79  |   2731 |      0 |  35 |       0 |
  1088 |TRAC80  |   2766 |      0 |  35 |       0 |
  1100 |TRAC81  |   2801 |      0 |  35 |       0 |
  1112 |TRAC82  |   2836 |      0 |  35 |       0 |
  1124 |TRAC83  |   2871 |      0 |  35 |       0 |
  1136 |TRAC84  |   2906 |      0 |  35 |       0 |
  1148 |TRAC85  |   2941 |      0 |  35 |       0 |
  1160 |TRAC86  |   2976 |      0 |  35 |       0 |
  1172 |TRAC87  |   3011 |      0 |  35 |       0 |
  1184 |TRAC88  |   3046 |      0 |  35 |       0 |
  1196 |TRAC89  |   3081 |      0 |  35 |       0 |
  1208 |TRAC90  |   3116 |      0 |  35 |       0 |
  1220 |TRAC91  |   3151 |      0 |  35 |       0 |
  1232 |TRAC92  |   3186 |      0 |  35 |       0 |
  1244 |TRAC93  |   3221 |      0 |  35 |       0 |
  1256 |TRAC94  |   3256 |      0 |  35 |       0 |
  1268 |TRAC95  |   3291 |      0 |  35 |       0 |
  1280 |TRAC96  |   3326 |      0 |  35 |       0 |
  1292 |TRAC97  |   3361 |      0 |  35 |       0 |
  1309 |PAR01   |   3396 |      0 |  35 |       0 |
  1328 |DIC_c01 |   3431 |      0 |  35 |       0 |
  1339 |DIC_c02 |   3466 |      0 |  35 |       0 |
  1329 |c01_DOC |   3501 |      0 |  35 |       0 |
  1340 |c02_DOC |   3536 |      0 |  35 |       0 |
  1330 |c01_POC |   3571 |      0 |  35 |       0 |
  1341 |c02_POC |   3606 |      0 |  35 |       0 |
  1308 |PARF    |   3641 |      0 |  35 |       0 |
  1305 |atten   |   3676 |      0 |  35 |       0 |
  1307 |surfPAR |   3711 |      0 |  35 |       0 |
  1306 |exfPAR  |   3746 |      0 |  35 |       0 |
  1322 |limn01  |   3781 |      0 |  35 |       0 |
  1323 |limp01  |   3816 |      0 |  35 |       0 |
  1324 |limsi01 |   3851 |      0 |  35 |       0 |
  1325 |limfe01 |   3886 |      0 |  35 |       0 |
  1326 |limI01  |   3921 |      0 |  35 |       0 |
  1327 |limT01  |   3956 |      0 |  35 |       0 |
  1331 |c01_c   |   3991 |      0 |  35 |       0 |
  1342 |c02_c   |   4026 |      0 |  35 |       0 |
  1354 |c_c03   |   4061 |      0 |  35 |       0 |
  1365 |c_c04   |   4096 |      0 |  35 |       0 |
  2202 |c_DOC   |   4131 |      0 |  35 |       0 |
  2203 |c_POC   |   4166 |      0 |  35 |       0 |
  2204 |c_PIC   |   4201 |      0 |  35 |       0 |
  2205 |n_DON   |   4236 |      0 |  35 |       0 |
  2206 |n_PON   |   4271 |      0 |  35 |       0 |
  2207 |p_DOP   |   4306 |      0 |  35 |       0 |
  2208 |p_POP   |   4341 |      0 |  35 |       0 |
------------------------------------------------------------------------
Global & Regional Statistics diagnostics: Number of lists:     0
------------------------------------------------------------------------
(PID.TID 0000.0001)  MDS_READ_FIELD: opening global file: ../input/input/loc1_NH4_run83_janprof.bin
(PID.TID 0000.0001)  MDS_READ_FIELD: opening global file: ../input/input/loc1_NO2_run83_janprof.bin
(PID.TID 0000.0001)  MDS_READ_FIELD: opening global file: ../input/input/loc1_nitr_janprof.bin
(PID.TID 0000.0001)  MDS_READ_FIELD: opening global file: ../input/input/loc1_phos_janprof.bin
(PID.TID 0000.0001)  MDS_READ_FIELD: opening global file: ../input/input/loc1_sil_janprof.bin
(PID.TID 0000.0001)  MDS_READ_FIELD: opening global file: ../input/input/fet_uniform.bin
(PID.TID 0000.0001)  MDS_READ_FIELD: opening global file: ../input/input/loc1_DON_run83_janprof.bin
(PID.TID 0000.0001)  MDS_READ_FIELD: opening global file: ../input/input/loc1_DOP_run83_janprof.bin
(PID.TID 0000.0001)  MDS_READ_FIELD: opening global file: ../input/input/loc1_DOFe_run83_janprof.bin
(PID.TID 0000.0001)  MDS_READ_FIELD: opening global file: ../input/input/loc1_PON_run83_janprof.bin
(PID.TID 0000.0001)  MDS_READ_FIELD: opening global file: ../input/input/loc1_POP_run83_janprof.bin
(PID.TID 0000.0001)  MDS_READ_FIELD: opening global file: ../input/input/loc1_POSi_run83_janprof.bin
(PID.TID 0000.0001)  MDS_READ_FIELD: opening global file: ../input/input/loc1_POFe_run83_janprof.bin
(PID.TID 0000.0001)  MDS_READ_FIELD: opening global file: ../input/input/loc1_biomass_run83_janprof.bin
(PID.TID 0000.0001)  MDS_READ_FIELD: opening global file: ../input/input/loc1_biomass_run83_janprof.bin
(PID.TID 0000.0001)  MDS_READ_FIELD: opening global file: ../input/input/loc1_biomass_run83_janprof.bin
(PID.TID 0000.0001)  MDS_READ_FIELD: opening global file: ../input/input/loc1_biomass_run83_janprof.bin
(PID.TID 0000.0001)  MDS_READ_FIELD: opening global file: ../input/input/loc1_biomass_run83_janprof.bin
(PID.TID 0000.0001)  MDS_READ_FIELD: opening global file: ../input/input/loc1_biomass_run83_janprof.bin
(PID.TID 0000.0001)  MDS_READ_FIELD: opening global file: ../input/input/loc1_biomass_run83_janprof.bin
(PID.TID 0000.0001)  MDS_READ_FIELD: opening global file: ../input/input/loc1_biomass_run83_janprof.bin
(PID.TID 0000.0001)  MDS_READ_FIELD: opening global file: ../input/input/loc1_biomass_run83_janprof.bin
(PID.TID 0000.0001)  MDS_READ_FIELD: opening global file: ../input/input/loc1_biomass_run83_janprof.bin
(PID.TID 0000.0001)  MDS_READ_FIELD: opening global file: ../input/input/loc1_biomass_run83_janprof.bin
(PID.TID 0000.0001)  MDS_READ_FIELD: opening global file: ../input/input/loc1_biomass_run83_janprof.bin
(PID.TID 0000.0001)  MDS_READ_FIELD: opening global file: ../input/input/loc1_biomass_run83_janprof.bin
(PID.TID 0000.0001)  MDS_READ_FIELD: opening global file: ../input/input/loc1_biomass_run83_janprof.bin
(PID.TID 0000.0001)  MDS_READ_FIELD: opening global file: ../input/input/loc1_biomass_run83_janprof.bin
(PID.TID 0000.0001)  MDS_READ_FIELD: opening global file: ../input/input/loc1_biomass_run83_janprof.bin
(PID.TID 0000.0001)  MDS_READ_FIELD: opening global file: ../input/input/loc1_biomass_run83_janprof.bin
(PID.TID 0000.0001)  MDS_READ_FIELD: opening global file: ../input/input/loc1_biomass_run83_janprof.bin
(PID.TID 0000.0001)  MDS_READ_FIELD: opening global file: ../input/input/loc1_biomass_run83_janprof.bin
(PID.TID 0000.0001)  MDS_READ_FIELD: opening global file: ../input/input/loc1_biomass_run83_janprof.bin
(PID.TID 0000.0001)  MDS_READ_FIELD: opening global file: ../input/input/loc1_biomass_run83_janprof.bin
(PID.TID 0000.0001)  MDS_READ_FIELD: opening global file: ../input/input/loc1_biomass_run83_janprof.bin
(PID.TID 0000.0001)  MDS_READ_FIELD: opening global file: ../input/input/loc1_biomass_run83_janprof.bin
(PID.TID 0000.0001)  MDS_READ_FIELD: opening global file: ../input/input/loc1_biomass_run83_janprof.bin
(PID.TID 0000.0001)  MDS_READ_FIELD: opening global file: ../input/input/loc1_biomass_run83_janprof.bin
(PID.TID 0000.0001)  MDS_READ_FIELD: opening global file: ../input/input/loc1_biomass_run83_janprof.bin
(PID.TID 0000.0001)  MDS_READ_FIELD: opening global file: ../input/input/loc1_biomass_run83_janprof.bin
(PID.TID 0000.0001)  MDS_READ_FIELD: opening global file: ../input/input/loc1_biomass_run83_janprof.bin
(PID.TID 0000.0001)  MDS_READ_FIELD: opening global file: ../input/input/loc1_biomass_run83_janprof.bin
(PID.TID 0000.0001)  MDS_READ_FIELD: opening global file: ../input/input/loc1_biomass_run83_janprof.bin
(PID.TID 0000.0001)  MDS_READ_FIELD: opening global file: ../input/input/loc1_biomass_run83_janprof.bin
(PID.TID 0000.0001)  MDS_READ_FIELD: opening global file: ../input/input/loc1_biomass_run83_janprof.bin
(PID.TID 0000.0001)  MDS_READ_FIELD: opening global file: ../input/input/loc1_biomass_run83_janprof.bin
(PID.TID 0000.0001)  MDS_READ_FIELD: opening global file: ../input/input/loc1_biomass_run83_janprof.bin
(PID.TID 0000.0001)  MDS_READ_FIELD: opening global file: ../input/input/loc1_biomass_run83_janprof.bin
(PID.TID 0000.0001)  MDS_READ_FIELD: opening global file: ../input/input/loc1_biomass_run83_janprof.bin
(PID.TID 0000.0001)  MDS_READ_FIELD: opening global file: ../input/input/loc1_biomass_run83_janprof.bin
(PID.TID 0000.0001)  MDS_READ_FIELD: opening global file: ../input/input/loc1_biomass_run83_janprof.bin
(PID.TID 0000.0001)  MDS_READ_FIELD: opening global file: ../input/input/loc1_biomass_run83_janprof.bin
(PID.TID 0000.0001)  MDS_READ_FIELD: opening global file: ../input/input/loc1_biomass_run83_janprof.bin
(PID.TID 0000.0001)  MDS_READ_FIELD: opening global file: ../input/input/loc1_biomass_run83_janprof.bin
(PID.TID 0000.0001)  MDS_READ_FIELD: opening global file: ../input/input/loc1_biomass_run83_janprof.bin
(PID.TID 0000.0001)  MDS_READ_FIELD: opening global file: ../input/input/loc1_biomass_run83_janprof.bin
(PID.TID 0000.0001)  MDS_READ_FIELD: opening global file: ../input/input/loc1_biomass_run83_janprof.bin
(PID.TID 0000.0001)  MDS_READ_FIELD: opening global file: ../input/input/loc1_biomass_run83_janprof.bin
(PID.TID 0000.0001)  MDS_READ_FIELD: opening global file: ../input/input/loc1_biomass_run83_janprof.bin
(PID.TID 0000.0001)  MDS_READ_FIELD: opening global file: ../input/input/loc1_biomass_run83_janprof.bin
(PID.TID 0000.0001)  MDS_READ_FIELD: opening global file: ../input/input/loc1_biomass_run83_janprof.bin
(PID.TID 0000.0001)  MDS_READ_FIELD: opening global file: ../input/input/loc1_biomass_run83_janprof.bin
(PID.TID 0000.0001)  MDS_READ_FIELD: opening global file: ../input/input/loc1_biomass_run83_janprof.bin
(PID.TID 0000.0001)  MDS_READ_FIELD: opening global file: ../input/input/loc1_biomass_run83_janprof.bin
(PID.TID 0000.0001)  MDS_READ_FIELD: opening global file: ../input/input/loc1_biomass_run83_janprof.bin
(PID.TID 0000.0001)  MDS_READ_FIELD: opening global file: ../input/input/loc1_biomass_run83_janprof.bin
(PID.TID 0000.0001)  MDS_READ_FIELD: opening global file: ../input/input/loc1_biomass_run83_janprof.bin
(PID.TID 0000.0001)  MDS_READ_FIELD: opening global file: ../input/input/loc1_biomass_run83_janprof.bin
(PID.TID 0000.0001)  MDS_READ_FIELD: opening global file: ../input/input/loc1_biomass_run83_janprof.bin
(PID.TID 0000.0001)  MDS_READ_FIELD: opening global file: ../input/input/loc1_biomass_run83_janprof.bin
(PID.TID 0000.0001)  MDS_READ_FIELD: opening global file: ../input/input/loc1_biomass_run83_janprof.bin
(PID.TID 0000.0001)  MDS_READ_FIELD: opening global file: ../input/input/loc1_biomass_run83_janprof.bin
(PID.TID 0000.0001)  MDS_READ_FIELD: opening global file: ../input/input/loc1_biomass_run83_janprof.bin
(PID.TID 0000.0001)  MDS_READ_FIELD: opening global file: ../input/input/loc1_biomass_run83_janprof.bin
(PID.TID 0000.0001)  MDS_READ_FIELD: opening global file: ../input/input/loc1_biomass_run83_janprof.bin
(PID.TID 0000.0001)  MDS_READ_FIELD: opening global file: ../input/input/loc1_biomass_run83_janprof.bin
(PID.TID 0000.0001)  MDS_READ_FIELD: opening global file: ../input/input/loc1_biomass_run83_janprof.bin
(PID.TID 0000.0001)  MDS_READ_FIELD: opening global file: ../input/input/loc1_biomass_run83_janprof.bin
(PID.TID 0000.0001)  MDS_READ_FIELD: opening global file: ../input/input/loc1_biomass_run83_janprof.bin
(PID.TID 0000.0001)  MDS_READ_FIELD: opening global file: ../input/input/loc1_biomass_run83_janprof.bin
(PID.TID 0000.0001)  MDS_READ_FIELD: opening global file: ../input/input/loc1_biomass_run83_janprof.bin
(PID.TID 0000.0001)  MDS_READ_FIELD: opening global file: ../input/input/loc1_biomass_run83_janprof.bin
(PID.TID 0000.0001)  MDS_READ_FIELD: opening global file: ../input/input/loc1_biomass_run83_janprof.bin
(PID.TID 0000.0001)  MDS_READ_FIELD: opening global file: ../input/input/loc1_biomass_run83_janprof.bin
(PID.TID 0000.0001)  MDS_READ_FIELD: opening global file: ../input/input/loc1_biomass_run83_janprof.bin
(PID.TID 0000.0001)  MDS_READ_FIELD: opening global file: ../input/input/loc1_biomass_run83_janprof.bin
(PID.TID 0000.0001)  MDS_READ_FIELD: opening global file: ../input/input/loc1_biomass_run83_janprof.bin
(PID.TID 0000.0001)  MDS_READ_FIELD: opening global file: ../input/input/loc1_biomass_run83_janprof.bin
(PID.TID 0000.0001)  MDS_READ_FIELD: opening global file: ../input/input/loc1_biomass_run83_janprof.bin
(PID.TID 0000.0001)  MDS_READ_FIELD: opening global file: ../input/input/loc1_biomass_run83_janprof.bin
(PID.TID 0000.0001)  MDS_READ_FIELD: opening global file: ../input/input/loc1_biomass_run83_janprof.bin
(PID.TID 0000.0001)  MDS_READ_FIELD: opening global file: ../input/input/loc1_ZOOP_run83_janprof.bin
(PID.TID 0000.0001)  MDS_READ_FIELD: opening global file: ../input/input/loc1_ZOOP_run83_janprof.bin
 PAR   9.8239160280393681E+252
(PID.TID 0000.0001) // =======================================================
(PID.TID 0000.0001) // Model current state
(PID.TID 0000.0001) // =======================================================
(PID.TID 0000.0001) 
(PID.TID 0000.0001) // =======================================================
(PID.TID 0000.0001) // Begin MONITOR dynamic field statistics
(PID.TID 0000.0001) // =======================================================
(PID.TID 0000.0001) %MON time_tsnumber                =                     0
(PID.TID 0000.0001) %MON time_secondsf                =   0.0000000000000000E+00
(PID.TID 0000.0001) %MON dynstat_eta_max              =   0.0000000000000000E+00
(PID.TID 0000.0001) %MON dynstat_eta_min              =   0.0000000000000000E+00
(PID.TID 0000.0001) %MON dynstat_eta_mean             =   0.0000000000000000E+00
(PID.TID 0000.0001) %MON dynstat_eta_sd               =   0.0000000000000000E+00
(PID.TID 0000.0001) %MON dynstat_eta_del2             =   0.0000000000000000E+00
(PID.TID 0000.0001) %MON dynstat_uvel_max             =   0.0000000000000000E+00
(PID.TID 0000.0001) %MON dynstat_uvel_min             =   0.0000000000000000E+00
(PID.TID 0000.0001) %MON dynstat_uvel_mean            =   0.0000000000000000E+00
(PID.TID 0000.0001) %MON dynstat_uvel_sd              =   0.0000000000000000E+00
(PID.TID 0000.0001) %MON dynstat_uvel_del2            =   0.0000000000000000E+00
(PID.TID 0000.0001) %MON dynstat_vvel_max             =   0.0000000000000000E+00
(PID.TID 0000.0001) %MON dynstat_vvel_min             =   0.0000000000000000E+00
(PID.TID 0000.0001) %MON dynstat_vvel_mean            =   0.0000000000000000E+00
(PID.TID 0000.0001) %MON dynstat_vvel_sd              =   0.0000000000000000E+00
(PID.TID 0000.0001) %MON dynstat_vvel_del2            =   0.0000000000000000E+00
(PID.TID 0000.0001) %MON dynstat_wvel_max             =   0.0000000000000000E+00
(PID.TID 0000.0001) %MON dynstat_wvel_min             =   0.0000000000000000E+00
(PID.TID 0000.0001) %MON dynstat_wvel_mean            =   0.0000000000000000E+00
(PID.TID 0000.0001) %MON dynstat_wvel_sd              =   0.0000000000000000E+00
(PID.TID 0000.0001) %MON dynstat_wvel_del2            =   0.0000000000000000E+00
(PID.TID 0000.0001) %MON dynstat_theta_max            =   2.6345800399780273E+01
(PID.TID 0000.0001) %MON dynstat_theta_min            =   2.6737000942230225E+00
(PID.TID 0000.0001) %MON dynstat_theta_mean           =   5.4735936027057521E+00
(PID.TID 0000.0001) %MON dynstat_theta_sd             =   5.1972090828105486E+00
(PID.TID 0000.0001) %MON dynstat_theta_del2           =   0.0000000000000000E+00
(PID.TID 0000.0001) %MON dynstat_salt_max             =   3.5000000000000000E+01
(PID.TID 0000.0001) %MON dynstat_salt_min             =   3.5000000000000000E+01
(PID.TID 0000.0001) %MON dynstat_salt_mean            =   3.5000000000000007E+01
(PID.TID 0000.0001) %MON dynstat_salt_sd              =   7.1054273576010019E-15
(PID.TID 0000.0001) %MON dynstat_salt_del2            =   0.0000000000000000E+00
(PID.TID 0000.0001) %MON dynstat_sst_max              =   2.6345800399780273E+01
(PID.TID 0000.0001) %MON dynstat_sst_min              =   2.6345800399780273E+01
(PID.TID 0000.0001) %MON dynstat_sst_mean             =   2.6345800399780273E+01
(PID.TID 0000.0001) %MON dynstat_sst_sd               =   0.0000000000000000E+00
(PID.TID 0000.0001) %MON dynstat_sst_del2             =   0.0000000000000000E+00
(PID.TID 0000.0001) %MON dynstat_sss_max              =   3.5000000000000000E+01
(PID.TID 0000.0001) %MON dynstat_sss_min              =   3.5000000000000000E+01
(PID.TID 0000.0001) %MON dynstat_sss_mean             =   3.5000000000000000E+01
(PID.TID 0000.0001) %MON dynstat_sss_sd               =   0.0000000000000000E+00
(PID.TID 0000.0001) %MON dynstat_sss_del2             =   0.0000000000000000E+00
(PID.TID 0000.0001) %MON forcing_qnet_max             =   0.0000000000000000E+00
(PID.TID 0000.0001) %MON forcing_qnet_min             =   0.0000000000000000E+00
(PID.TID 0000.0001) %MON forcing_qnet_mean            =   0.0000000000000000E+00
(PID.TID 0000.0001) %MON forcing_qnet_sd              =   0.0000000000000000E+00
(PID.TID 0000.0001) %MON forcing_qnet_del2            =   0.0000000000000000E+00
(PID.TID 0000.0001) %MON forcing_qsw_max              =   0.0000000000000000E+00
(PID.TID 0000.0001) %MON forcing_qsw_min              =   0.0000000000000000E+00
(PID.TID 0000.0001) %MON forcing_qsw_mean             =   0.0000000000000000E+00
(PID.TID 0000.0001) %MON forcing_qsw_sd               =   0.0000000000000000E+00
(PID.TID 0000.0001) %MON forcing_qsw_del2             =   0.0000000000000000E+00
(PID.TID 0000.0001) %MON forcing_empmr_max            =   0.0000000000000000E+00
(PID.TID 0000.0001) %MON forcing_empmr_min            =   0.0000000000000000E+00
(PID.TID 0000.0001) %MON forcing_empmr_mean           =   0.0000000000000000E+00
(PID.TID 0000.0001) %MON forcing_empmr_sd             =   0.0000000000000000E+00
(PID.TID 0000.0001) %MON forcing_empmr_del2           =   0.0000000000000000E+00
(PID.TID 0000.0001) %MON forcing_fu_max               =   0.0000000000000000E+00
(PID.TID 0000.0001) %MON forcing_fu_min               =   0.0000000000000000E+00
(PID.TID 0000.0001) %MON forcing_fu_mean              =   0.0000000000000000E+00
(PID.TID 0000.0001) %MON forcing_fu_sd                =   0.0000000000000000E+00
(PID.TID 0000.0001) %MON forcing_fu_del2              =   0.0000000000000000E+00
(PID.TID 0000.0001) %MON forcing_fv_max               =   0.0000000000000000E+00
(PID.TID 0000.0001) %MON forcing_fv_min               =   0.0000000000000000E+00
(PID.TID 0000.0001) %MON forcing_fv_mean              =   0.0000000000000000E+00
(PID.TID 0000.0001) %MON forcing_fv_sd                =   0.0000000000000000E+00
(PID.TID 0000.0001) %MON forcing_fv_del2              =   0.0000000000000000E+00
(PID.TID 0000.0001) %MON advcfl_uvel_max              =   0.0000000000000000E+00
(PID.TID 0000.0001) %MON advcfl_vvel_max              =   0.0000000000000000E+00
(PID.TID 0000.0001) %MON advcfl_wvel_max              =   0.0000000000000000E+00
(PID.TID 0000.0001) %MON advcfl_W_hf_max              =   0.0000000000000000E+00
(PID.TID 0000.0001) %MON pe_b_mean                    =   0.0000000000000000E+00
(PID.TID 0000.0001) %MON ke_max                       =   0.0000000000000000E+00
(PID.TID 0000.0001) %MON ke_mean                      =   0.0000000000000000E+00
(PID.TID 0000.0001) %MON ke_vol                       =   4.1199767883484609E+13
(PID.TID 0000.0001) %MON vort_r_min                   =   0.0000000000000000E+00
(PID.TID 0000.0001) %MON vort_r_max                   =   0.0000000000000000E+00
(PID.TID 0000.0001) %MON vort_a_mean                  =  -4.5067801836624727E-05
(PID.TID 0000.0001) %MON vort_a_sd                    =  -4.1359030627651384E-25
(PID.TID 0000.0001) %MON vort_p_mean                  =  -4.5067801836624727E-05
(PID.TID 0000.0001) %MON vort_p_sd                    =   0.0000000000000000E+00
(PID.TID 0000.0001) %MON surfExpan_theta_mean         =   0.0000000000000000E+00
(PID.TID 0000.0001) %MON surfExpan_salt_mean          =   0.0000000000000000E+00
(PID.TID 0000.0001) // =======================================================
(PID.TID 0000.0001) // End MONITOR dynamic field statistics
(PID.TID 0000.0001) // =======================================================
(PID.TID 0000.0001) // =======================================================
(PID.TID 0000.0001) // Begin MONITOR ptracer field statistics
(PID.TID 0000.0001) // =======================================================
(PID.TID 0000.0001) %MON trcstat_ptracer01_max        =   2.0000000000000000E+03
(PID.TID 0000.0001) %MON trcstat_ptracer01_min        =   2.0000000000000000E+03
(PID.TID 0000.0001) %MON trcstat_ptracer01_mean       =   2.0000000000000000E+03
(PID.TID 0000.0001) %MON trcstat_ptracer01_sd         =   0.0000000000000000E+00
(PID.TID 0000.0001) %MON trcstat_ptracer01_del2       =   0.0000000000000000E+00
(PID.TID 0000.0001) %MON trcstat_ptracer02_max        =   2.5584036484360695E-02
(PID.TID 0000.0001) %MON trcstat_ptracer02_min        =   1.8763074649541522E-07
(PID.TID 0000.0001) %MON trcstat_ptracer02_mean       =   6.0352662496818848E-04
(PID.TID 0000.0001) %MON trcstat_ptracer02_sd         =   3.2425361014467536E-03
(PID.TID 0000.0001) %MON trcstat_ptracer02_del2       =   0.0000000000000000E+00
(PID.TID 0000.0001) %MON trcstat_ptracer03_max        =   1.8258459866046906E-02
(PID.TID 0000.0001) %MON trcstat_ptracer03_min        =   3.8796779335825704E-06
(PID.TID 0000.0001) %MON trcstat_ptracer03_mean       =   6.0474443227462045E-04
(PID.TID 0000.0001) %MON trcstat_ptracer03_sd         =   1.9428680890593122E-03
(PID.TID 0000.0001) %MON trcstat_ptracer03_del2       =   0.0000000000000000E+00
(PID.TID 0000.0001) %MON trcstat_ptracer04_max        =   3.3903499603271484E+01
(PID.TID 0000.0001) %MON trcstat_ptracer04_min        =   4.6300001442432404E-02
(PID.TID 0000.0001) %MON trcstat_ptracer04_mean       =   2.3502389802217742E+01
(PID.TID 0000.0001) %MON trcstat_ptracer04_sd         =   7.8162030599380596E+00
(PID.TID 0000.0001) %MON trcstat_ptracer04_del2       =   0.0000000000000000E+00
(PID.TID 0000.0001) %MON trcstat_ptracer05_max        =   2.2437000274658203E+00
(PID.TID 0000.0001) %MON trcstat_ptracer05_min        =   2.1024999022483826E-01
(PID.TID 0000.0001) %MON trcstat_ptracer05_mean       =   1.5821337454308768E+00
(PID.TID 0000.0001) %MON trcstat_ptracer05_sd         =   4.6735065681379767E-01
(PID.TID 0000.0001) %MON trcstat_ptracer05_del2       =   0.0000000000000000E+00
(PID.TID 0000.0001) %MON trcstat_ptracer06_max        =   3.9387401580810547E+01
(PID.TID 0000.0001) %MON trcstat_ptracer06_min        =   1.2247999906539917E+00
(PID.TID 0000.0001) %MON trcstat_ptracer06_mean       =   2.9621888811155113E+01
(PID.TID 0000.0001) %MON trcstat_ptracer06_sd         =   1.1270588565468758E+01
(PID.TID 0000.0001) %MON trcstat_ptracer06_del2       =   0.0000000000000000E+00
(PID.TID 0000.0001) %MON trcstat_ptracer07_max        =   1.3000000035390258E-03
(PID.TID 0000.0001) %MON trcstat_ptracer07_min        =   1.3000000035390258E-03
(PID.TID 0000.0001) %MON trcstat_ptracer07_mean       =   1.3000000035390258E-03
(PID.TID 0000.0001) %MON trcstat_ptracer07_sd         =   0.0000000000000000E+00
(PID.TID 0000.0001) %MON trcstat_ptracer07_del2       =   0.0000000000000000E+00
(PID.TID 0000.0001) %MON trcstat_ptracer08_max        =   0.0000000000000000E+00
(PID.TID 0000.0001) %MON trcstat_ptracer08_min        =   0.0000000000000000E+00
(PID.TID 0000.0001) %MON trcstat_ptracer08_mean       =   0.0000000000000000E+00
(PID.TID 0000.0001) %MON trcstat_ptracer08_sd         =   0.0000000000000000E+00
(PID.TID 0000.0001) %MON trcstat_ptracer08_del2       =   0.0000000000000000E+00
(PID.TID 0000.0001) %MON trcstat_ptracer09_max        =   8.1815071403980255E-02
(PID.TID 0000.0001) %MON trcstat_ptracer09_min        =   0.0000000000000000E+00
(PID.TID 0000.0001) %MON trcstat_ptracer09_mean       =   3.4357646734699799E-03
(PID.TID 0000.0001) %MON trcstat_ptracer09_sd         =   1.4790744815688046E-02
(PID.TID 0000.0001) %MON trcstat_ptracer09_del2       =   0.0000000000000000E+00
(PID.TID 0000.0001) %MON trcstat_ptracer10_max        =   5.1134419627487659E-03
(PID.TID 0000.0001) %MON trcstat_ptracer10_min        =   0.0000000000000000E+00
(PID.TID 0000.0001) %MON trcstat_ptracer10_mean       =   2.1473529209187374E-04
(PID.TID 0000.0001) %MON trcstat_ptracer10_sd         =   9.2442155098050290E-04
(PID.TID 0000.0001) %MON trcstat_ptracer10_del2       =   0.0000000000000000E+00
(PID.TID 0000.0001) %MON trcstat_ptracer11_max        =   5.1134416025888640E-06
(PID.TID 0000.0001) %MON trcstat_ptracer11_min        =   0.0000000000000000E+00
(PID.TID 0000.0001) %MON trcstat_ptracer11_mean       =   2.1473529239837693E-07
(PID.TID 0000.0001) %MON trcstat_ptracer11_sd         =   9.2442155063872205E-07
(PID.TID 0000.0001) %MON trcstat_ptracer11_del2       =   0.0000000000000000E+00
(PID.TID 0000.0001) %MON trcstat_ptracer12_max        =   0.0000000000000000E+00
(PID.TID 0000.0001) %MON trcstat_ptracer12_min        =   0.0000000000000000E+00
(PID.TID 0000.0001) %MON trcstat_ptracer12_mean       =   0.0000000000000000E+00
(PID.TID 0000.0001) %MON trcstat_ptracer12_sd         =   0.0000000000000000E+00
(PID.TID 0000.0001) %MON trcstat_ptracer12_del2       =   0.0000000000000000E+00
(PID.TID 0000.0001) %MON trcstat_ptracer13_max        =   4.3595102615654469E-03
(PID.TID 0000.0001) %MON trcstat_ptracer13_min        =   1.8765767890727147E-05
(PID.TID 0000.0001) %MON trcstat_ptracer13_mean       =   1.2629093434171983E-03
(PID.TID 0000.0001) %MON trcstat_ptracer13_sd         =   1.5461536630186044E-03
(PID.TID 0000.0001) %MON trcstat_ptracer13_del2       =   0.0000000000000000E+00
(PID.TID 0000.0001) %MON trcstat_ptracer14_max        =   2.7246939134784043E-04
(PID.TID 0000.0001) %MON trcstat_ptracer14_min        =   1.1728604931704467E-06
(PID.TID 0000.0001) %MON trcstat_ptracer14_mean       =   7.8931833963574895E-05
(PID.TID 0000.0001) %MON trcstat_ptracer14_sd         =   9.6634603938662776E-05
(PID.TID 0000.0001) %MON trcstat_ptracer14_del2       =   0.0000000000000000E+00
(PID.TID 0000.0001) %MON trcstat_ptracer15_max        =   1.6253039240837097E-02
(PID.TID 0000.0001) %MON trcstat_ptracer15_min        =   1.1382005177438259E-03
(PID.TID 0000.0001) %MON trcstat_ptracer15_mean       =   5.4894673427532239E-03
(PID.TID 0000.0001) %MON trcstat_ptracer15_sd         =   5.1731692661236344E-03
(PID.TID 0000.0001) %MON trcstat_ptracer15_del2       =   0.0000000000000000E+00
(PID.TID 0000.0001) %MON trcstat_ptracer16_max        =   2.7246940703662403E-07
(PID.TID 0000.0001) %MON trcstat_ptracer16_min        =   1.1728603643845759E-09
(PID.TID 0000.0001) %MON trcstat_ptracer16_mean       =   7.8931834490194816E-08
(PID.TID 0000.0001) %MON trcstat_ptracer16_sd         =   9.6634605997272585E-08
(PID.TID 0000.0001) %MON trcstat_ptracer16_del2       =   0.0000000000000000E+00
(PID.TID 0000.0001) %MON trcstat_ptracer17_max        =   0.0000000000000000E+00
(PID.TID 0000.0001) %MON trcstat_ptracer17_min        =   0.0000000000000000E+00
(PID.TID 0000.0001) %MON trcstat_ptracer17_mean       =   0.0000000000000000E+00
(PID.TID 0000.0001) %MON trcstat_ptracer17_sd         =   0.0000000000000000E+00
(PID.TID 0000.0001) %MON trcstat_ptracer17_del2       =   0.0000000000000000E+00
(PID.TID 0000.0001) %MON trcstat_ptracer18_max        =   8.8153867181972601E-04
(PID.TID 0000.0001) %MON trcstat_ptracer18_min        =   0.0000000000000000E+00
(PID.TID 0000.0001) %MON trcstat_ptracer18_mean       =   2.6284899836225204E-05
(PID.TID 0000.0001) %MON trcstat_ptracer18_sd         =   1.3780694875415342E-04
(PID.TID 0000.0001) %MON trcstat_ptracer18_del2       =   0.0000000000000000E+00
(PID.TID 0000.0001) %MON trcstat_ptracer19_max        =   8.8153867181972601E-04
(PID.TID 0000.0001) %MON trcstat_ptracer19_min        =   0.0000000000000000E+00
(PID.TID 0000.0001) %MON trcstat_ptracer19_mean       =   2.6284899836225204E-05
(PID.TID 0000.0001) %MON trcstat_ptracer19_sd         =   1.3780694875415342E-04
(PID.TID 0000.0001) %MON trcstat_ptracer19_del2       =   0.0000000000000000E+00
(PID.TID 0000.0001) %MON trcstat_ptracer20_max        =   8.8153867181972601E-04
(PID.TID 0000.0001) %MON trcstat_ptracer20_min        =   0.0000000000000000E+00
(PID.TID 0000.0001) %MON trcstat_ptracer20_mean       =   2.6284899836225204E-05
(PID.TID 0000.0001) %MON trcstat_ptracer20_sd         =   1.3780694875415342E-04
(PID.TID 0000.0001) %MON trcstat_ptracer20_del2       =   0.0000000000000000E+00
(PID.TID 0000.0001) %MON trcstat_ptracer21_max        =   8.8153867181972601E-04
(PID.TID 0000.0001) %MON trcstat_ptracer21_min        =   0.0000000000000000E+00
(PID.TID 0000.0001) %MON trcstat_ptracer21_mean       =   2.6284899836225204E-05
(PID.TID 0000.0001) %MON trcstat_ptracer21_sd         =   1.3780694875415342E-04
(PID.TID 0000.0001) %MON trcstat_ptracer21_del2       =   0.0000000000000000E+00
(PID.TID 0000.0001) %MON trcstat_ptracer22_max        =   8.8153867181972601E-04
(PID.TID 0000.0001) %MON trcstat_ptracer22_min        =   0.0000000000000000E+00
(PID.TID 0000.0001) %MON trcstat_ptracer22_mean       =   2.6284899836225204E-05
(PID.TID 0000.0001) %MON trcstat_ptracer22_sd         =   1.3780694875415342E-04
(PID.TID 0000.0001) %MON trcstat_ptracer22_del2       =   0.0000000000000000E+00
(PID.TID 0000.0001) %MON trcstat_ptracer23_max        =   8.8153867181972601E-04
(PID.TID 0000.0001) %MON trcstat_ptracer23_min        =   0.0000000000000000E+00
(PID.TID 0000.0001) %MON trcstat_ptracer23_mean       =   2.6284899836225204E-05
(PID.TID 0000.0001) %MON trcstat_ptracer23_sd         =   1.3780694875415342E-04
(PID.TID 0000.0001) %MON trcstat_ptracer23_del2       =   0.0000000000000000E+00
(PID.TID 0000.0001) %MON trcstat_ptracer24_max        =   8.8153867181972601E-04
(PID.TID 0000.0001) %MON trcstat_ptracer24_min        =   0.0000000000000000E+00
(PID.TID 0000.0001) %MON trcstat_ptracer24_mean       =   2.6284899836225204E-05
(PID.TID 0000.0001) %MON trcstat_ptracer24_sd         =   1.3780694875415342E-04
(PID.TID 0000.0001) %MON trcstat_ptracer24_del2       =   0.0000000000000000E+00
(PID.TID 0000.0001) %MON trcstat_ptracer25_max        =   8.8153867181972601E-04
(PID.TID 0000.0001) %MON trcstat_ptracer25_min        =   0.0000000000000000E+00
(PID.TID 0000.0001) %MON trcstat_ptracer25_mean       =   2.6284899836225204E-05
(PID.TID 0000.0001) %MON trcstat_ptracer25_sd         =   1.3780694875415342E-04
(PID.TID 0000.0001) %MON trcstat_ptracer25_del2       =   0.0000000000000000E+00
(PID.TID 0000.0001) %MON trcstat_ptracer26_max        =   8.8153867181972601E-04
(PID.TID 0000.0001) %MON trcstat_ptracer26_min        =   0.0000000000000000E+00
(PID.TID 0000.0001) %MON trcstat_ptracer26_mean       =   2.6284899836225204E-05
(PID.TID 0000.0001) %MON trcstat_ptracer26_sd         =   1.3780694875415342E-04
(PID.TID 0000.0001) %MON trcstat_ptracer26_del2       =   0.0000000000000000E+00
(PID.TID 0000.0001) %MON trcstat_ptracer27_max        =   8.8153867181972601E-04
(PID.TID 0000.0001) %MON trcstat_ptracer27_min        =   0.0000000000000000E+00
(PID.TID 0000.0001) %MON trcstat_ptracer27_mean       =   2.6284899836225204E-05
(PID.TID 0000.0001) %MON trcstat_ptracer27_sd         =   1.3780694875415342E-04
(PID.TID 0000.0001) %MON trcstat_ptracer27_del2       =   0.0000000000000000E+00
(PID.TID 0000.0001) %MON trcstat_ptracer28_max        =   8.8153867181972601E-04
(PID.TID 0000.0001) %MON trcstat_ptracer28_min        =   0.0000000000000000E+00
(PID.TID 0000.0001) %MON trcstat_ptracer28_mean       =   2.6284899836225204E-05
(PID.TID 0000.0001) %MON trcstat_ptracer28_sd         =   1.3780694875415342E-04
(PID.TID 0000.0001) %MON trcstat_ptracer28_del2       =   0.0000000000000000E+00
(PID.TID 0000.0001) %MON trcstat_ptracer29_max        =   8.8153867181972601E-04
(PID.TID 0000.0001) %MON trcstat_ptracer29_min        =   0.0000000000000000E+00
(PID.TID 0000.0001) %MON trcstat_ptracer29_mean       =   2.6284899836225204E-05
(PID.TID 0000.0001) %MON trcstat_ptracer29_sd         =   1.3780694875415342E-04
(PID.TID 0000.0001) %MON trcstat_ptracer29_del2       =   0.0000000000000000E+00
(PID.TID 0000.0001) %MON trcstat_ptracer30_max        =   8.8153867181972601E-04
(PID.TID 0000.0001) %MON trcstat_ptracer30_min        =   0.0000000000000000E+00
(PID.TID 0000.0001) %MON trcstat_ptracer30_mean       =   2.6284899836225204E-05
(PID.TID 0000.0001) %MON trcstat_ptracer30_sd         =   1.3780694875415342E-04
(PID.TID 0000.0001) %MON trcstat_ptracer30_del2       =   0.0000000000000000E+00
(PID.TID 0000.0001) %MON trcstat_ptracer31_max        =   8.8153867181972601E-04
(PID.TID 0000.0001) %MON trcstat_ptracer31_min        =   0.0000000000000000E+00
(PID.TID 0000.0001) %MON trcstat_ptracer31_mean       =   2.6284899836225204E-05
(PID.TID 0000.0001) %MON trcstat_ptracer31_sd         =   1.3780694875415342E-04
(PID.TID 0000.0001) %MON trcstat_ptracer31_del2       =   0.0000000000000000E+00
(PID.TID 0000.0001) %MON trcstat_ptracer32_max        =   8.8153867181972601E-04
(PID.TID 0000.0001) %MON trcstat_ptracer32_min        =   0.0000000000000000E+00
(PID.TID 0000.0001) %MON trcstat_ptracer32_mean       =   2.6284899836225204E-05
(PID.TID 0000.0001) %MON trcstat_ptracer32_sd         =   1.3780694875415342E-04
(PID.TID 0000.0001) %MON trcstat_ptracer32_del2       =   0.0000000000000000E+00
(PID.TID 0000.0001) %MON trcstat_ptracer33_max        =   8.8153867181972601E-04
(PID.TID 0000.0001) %MON trcstat_ptracer33_min        =   0.0000000000000000E+00
(PID.TID 0000.0001) %MON trcstat_ptracer33_mean       =   2.6284899836225204E-05
(PID.TID 0000.0001) %MON trcstat_ptracer33_sd         =   1.3780694875415342E-04
(PID.TID 0000.0001) %MON trcstat_ptracer33_del2       =   0.0000000000000000E+00
(PID.TID 0000.0001) %MON trcstat_ptracer34_max        =   8.8153867181972601E-04
(PID.TID 0000.0001) %MON trcstat_ptracer34_min        =   0.0000000000000000E+00
(PID.TID 0000.0001) %MON trcstat_ptracer34_mean       =   2.6284899836225204E-05
(PID.TID 0000.0001) %MON trcstat_ptracer34_sd         =   1.3780694875415342E-04
(PID.TID 0000.0001) %MON trcstat_ptracer34_del2       =   0.0000000000000000E+00
(PID.TID 0000.0001) %MON trcstat_ptracer35_max        =   8.8153867181972601E-04
(PID.TID 0000.0001) %MON trcstat_ptracer35_min        =   0.0000000000000000E+00
(PID.TID 0000.0001) %MON trcstat_ptracer35_mean       =   2.6284899836225204E-05
(PID.TID 0000.0001) %MON trcstat_ptracer35_sd         =   1.3780694875415342E-04
(PID.TID 0000.0001) %MON trcstat_ptracer35_del2       =   0.0000000000000000E+00
(PID.TID 0000.0001) %MON trcstat_ptracer36_max        =   8.8153867181972601E-04
(PID.TID 0000.0001) %MON trcstat_ptracer36_min        =   0.0000000000000000E+00
(PID.TID 0000.0001) %MON trcstat_ptracer36_mean       =   2.6284899836225204E-05
(PID.TID 0000.0001) %MON trcstat_ptracer36_sd         =   1.3780694875415342E-04
(PID.TID 0000.0001) %MON trcstat_ptracer36_del2       =   0.0000000000000000E+00
(PID.TID 0000.0001) %MON trcstat_ptracer37_max        =   8.8153867181972601E-04
(PID.TID 0000.0001) %MON trcstat_ptracer37_min        =   0.0000000000000000E+00
(PID.TID 0000.0001) %MON trcstat_ptracer37_mean       =   2.6284899836225204E-05
(PID.TID 0000.0001) %MON trcstat_ptracer37_sd         =   1.3780694875415342E-04
(PID.TID 0000.0001) %MON trcstat_ptracer37_del2       =   0.0000000000000000E+00
(PID.TID 0000.0001) %MON trcstat_ptracer38_max        =   8.8153867181972601E-04
(PID.TID 0000.0001) %MON trcstat_ptracer38_min        =   0.0000000000000000E+00
(PID.TID 0000.0001) %MON trcstat_ptracer38_mean       =   2.6284899836225204E-05
(PID.TID 0000.0001) %MON trcstat_ptracer38_sd         =   1.3780694875415342E-04
(PID.TID 0000.0001) %MON trcstat_ptracer38_del2       =   0.0000000000000000E+00
(PID.TID 0000.0001) %MON trcstat_ptracer39_max        =   8.8153867181972601E-04
(PID.TID 0000.0001) %MON trcstat_ptracer39_min        =   0.0000000000000000E+00
(PID.TID 0000.0001) %MON trcstat_ptracer39_mean       =   2.6284899836225204E-05
(PID.TID 0000.0001) %MON trcstat_ptracer39_sd         =   1.3780694875415342E-04
(PID.TID 0000.0001) %MON trcstat_ptracer39_del2       =   0.0000000000000000E+00
(PID.TID 0000.0001) %MON trcstat_ptracer40_max        =   8.8153867181972601E-04
(PID.TID 0000.0001) %MON trcstat_ptracer40_min        =   0.0000000000000000E+00
(PID.TID 0000.0001) %MON trcstat_ptracer40_mean       =   2.6284899836225204E-05
(PID.TID 0000.0001) %MON trcstat_ptracer40_sd         =   1.3780694875415342E-04
(PID.TID 0000.0001) %MON trcstat_ptracer40_del2       =   0.0000000000000000E+00
(PID.TID 0000.0001) %MON trcstat_ptracer41_max        =   8.8153867181972601E-04
(PID.TID 0000.0001) %MON trcstat_ptracer41_min        =   0.0000000000000000E+00
(PID.TID 0000.0001) %MON trcstat_ptracer41_mean       =   2.6284899836225204E-05
(PID.TID 0000.0001) %MON trcstat_ptracer41_sd         =   1.3780694875415342E-04
(PID.TID 0000.0001) %MON trcstat_ptracer41_del2       =   0.0000000000000000E+00
(PID.TID 0000.0001) %MON trcstat_ptracer42_max        =   8.8153867181972601E-04
(PID.TID 0000.0001) %MON trcstat_ptracer42_min        =   0.0000000000000000E+00
(PID.TID 0000.0001) %MON trcstat_ptracer42_mean       =   2.6284899836225204E-05
(PID.TID 0000.0001) %MON trcstat_ptracer42_sd         =   1.3780694875415342E-04
(PID.TID 0000.0001) %MON trcstat_ptracer42_del2       =   0.0000000000000000E+00
(PID.TID 0000.0001) %MON trcstat_ptracer43_max        =   8.8153867181972601E-04
(PID.TID 0000.0001) %MON trcstat_ptracer43_min        =   0.0000000000000000E+00
(PID.TID 0000.0001) %MON trcstat_ptracer43_mean       =   2.6284899836225204E-05
(PID.TID 0000.0001) %MON trcstat_ptracer43_sd         =   1.3780694875415342E-04
(PID.TID 0000.0001) %MON trcstat_ptracer43_del2       =   0.0000000000000000E+00
(PID.TID 0000.0001) %MON trcstat_ptracer44_max        =   8.8153867181972601E-04
(PID.TID 0000.0001) %MON trcstat_ptracer44_min        =   0.0000000000000000E+00
(PID.TID 0000.0001) %MON trcstat_ptracer44_mean       =   2.6284899836225204E-05
(PID.TID 0000.0001) %MON trcstat_ptracer44_sd         =   1.3780694875415342E-04
(PID.TID 0000.0001) %MON trcstat_ptracer44_del2       =   0.0000000000000000E+00
(PID.TID 0000.0001) %MON trcstat_ptracer45_max        =   8.8153867181972601E-04
(PID.TID 0000.0001) %MON trcstat_ptracer45_min        =   0.0000000000000000E+00
(PID.TID 0000.0001) %MON trcstat_ptracer45_mean       =   2.6284899836225204E-05
(PID.TID 0000.0001) %MON trcstat_ptracer45_sd         =   1.3780694875415342E-04
(PID.TID 0000.0001) %MON trcstat_ptracer45_del2       =   0.0000000000000000E+00
(PID.TID 0000.0001) %MON trcstat_ptracer46_max        =   8.8153867181972601E-04
(PID.TID 0000.0001) %MON trcstat_ptracer46_min        =   0.0000000000000000E+00
(PID.TID 0000.0001) %MON trcstat_ptracer46_mean       =   2.6284899836225204E-05
(PID.TID 0000.0001) %MON trcstat_ptracer46_sd         =   1.3780694875415342E-04
(PID.TID 0000.0001) %MON trcstat_ptracer46_del2       =   0.0000000000000000E+00
(PID.TID 0000.0001) %MON trcstat_ptracer47_max        =   8.8153867181972601E-04
(PID.TID 0000.0001) %MON trcstat_ptracer47_min        =   0.0000000000000000E+00
(PID.TID 0000.0001) %MON trcstat_ptracer47_mean       =   2.6284899836225204E-05
(PID.TID 0000.0001) %MON trcstat_ptracer47_sd         =   1.3780694875415342E-04
(PID.TID 0000.0001) %MON trcstat_ptracer47_del2       =   0.0000000000000000E+00
(PID.TID 0000.0001) %MON trcstat_ptracer48_max        =   8.8153867181972601E-04
(PID.TID 0000.0001) %MON trcstat_ptracer48_min        =   0.0000000000000000E+00
(PID.TID 0000.0001) %MON trcstat_ptracer48_mean       =   2.6284899836225204E-05
(PID.TID 0000.0001) %MON trcstat_ptracer48_sd         =   1.3780694875415342E-04
(PID.TID 0000.0001) %MON trcstat_ptracer48_del2       =   0.0000000000000000E+00
(PID.TID 0000.0001) %MON trcstat_ptracer49_max        =   8.8153867181972601E-04
(PID.TID 0000.0001) %MON trcstat_ptracer49_min        =   0.0000000000000000E+00
(PID.TID 0000.0001) %MON trcstat_ptracer49_mean       =   2.6284899836225204E-05
(PID.TID 0000.0001) %MON trcstat_ptracer49_sd         =   1.3780694875415342E-04
(PID.TID 0000.0001) %MON trcstat_ptracer49_del2       =   0.0000000000000000E+00
(PID.TID 0000.0001) %MON trcstat_ptracer50_max        =   8.8153867181972601E-04
(PID.TID 0000.0001) %MON trcstat_ptracer50_min        =   0.0000000000000000E+00
(PID.TID 0000.0001) %MON trcstat_ptracer50_mean       =   2.6284899836225204E-05
(PID.TID 0000.0001) %MON trcstat_ptracer50_sd         =   1.3780694875415342E-04
(PID.TID 0000.0001) %MON trcstat_ptracer50_del2       =   0.0000000000000000E+00
(PID.TID 0000.0001) %MON trcstat_ptracer51_max        =   8.8153867181972601E-04
(PID.TID 0000.0001) %MON trcstat_ptracer51_min        =   0.0000000000000000E+00
(PID.TID 0000.0001) %MON trcstat_ptracer51_mean       =   2.6284899836225204E-05
(PID.TID 0000.0001) %MON trcstat_ptracer51_sd         =   1.3780694875415342E-04
(PID.TID 0000.0001) %MON trcstat_ptracer51_del2       =   0.0000000000000000E+00
(PID.TID 0000.0001) %MON trcstat_ptracer52_max        =   8.8153867181972601E-04
(PID.TID 0000.0001) %MON trcstat_ptracer52_min        =   0.0000000000000000E+00
(PID.TID 0000.0001) %MON trcstat_ptracer52_mean       =   2.6284899836225204E-05
(PID.TID 0000.0001) %MON trcstat_ptracer52_sd         =   1.3780694875415342E-04
(PID.TID 0000.0001) %MON trcstat_ptracer52_del2       =   0.0000000000000000E+00
(PID.TID 0000.0001) %MON trcstat_ptracer53_max        =   8.8153867181972601E-04
(PID.TID 0000.0001) %MON trcstat_ptracer53_min        =   0.0000000000000000E+00
(PID.TID 0000.0001) %MON trcstat_ptracer53_mean       =   2.6284899836225204E-05
(PID.TID 0000.0001) %MON trcstat_ptracer53_sd         =   1.3780694875415342E-04
(PID.TID 0000.0001) %MON trcstat_ptracer53_del2       =   0.0000000000000000E+00
(PID.TID 0000.0001) %MON trcstat_ptracer54_max        =   8.8153867181972601E-04
(PID.TID 0000.0001) %MON trcstat_ptracer54_min        =   0.0000000000000000E+00
(PID.TID 0000.0001) %MON trcstat_ptracer54_mean       =   2.6284899836225204E-05
(PID.TID 0000.0001) %MON trcstat_ptracer54_sd         =   1.3780694875415342E-04
(PID.TID 0000.0001) %MON trcstat_ptracer54_del2       =   0.0000000000000000E+00
(PID.TID 0000.0001) %MON trcstat_ptracer55_max        =   8.8153867181972601E-04
(PID.TID 0000.0001) %MON trcstat_ptracer55_min        =   0.0000000000000000E+00
(PID.TID 0000.0001) %MON trcstat_ptracer55_mean       =   2.6284899836225204E-05
(PID.TID 0000.0001) %MON trcstat_ptracer55_sd         =   1.3780694875415342E-04
(PID.TID 0000.0001) %MON trcstat_ptracer55_del2       =   0.0000000000000000E+00
(PID.TID 0000.0001) %MON trcstat_ptracer56_max        =   8.8153867181972601E-04
(PID.TID 0000.0001) %MON trcstat_ptracer56_min        =   0.0000000000000000E+00
(PID.TID 0000.0001) %MON trcstat_ptracer56_mean       =   2.6284899836225204E-05
(PID.TID 0000.0001) %MON trcstat_ptracer56_sd         =   1.3780694875415342E-04
(PID.TID 0000.0001) %MON trcstat_ptracer56_del2       =   0.0000000000000000E+00
(PID.TID 0000.0001) %MON trcstat_ptracer57_max        =   8.8153867181972601E-04
(PID.TID 0000.0001) %MON trcstat_ptracer57_min        =   0.0000000000000000E+00
(PID.TID 0000.0001) %MON trcstat_ptracer57_mean       =   2.6284899836225204E-05
(PID.TID 0000.0001) %MON trcstat_ptracer57_sd         =   1.3780694875415342E-04
(PID.TID 0000.0001) %MON trcstat_ptracer57_del2       =   0.0000000000000000E+00
(PID.TID 0000.0001) %MON trcstat_ptracer58_max        =   8.8153867181972601E-04
(PID.TID 0000.0001) %MON trcstat_ptracer58_min        =   0.0000000000000000E+00
(PID.TID 0000.0001) %MON trcstat_ptracer58_mean       =   2.6284899836225204E-05
(PID.TID 0000.0001) %MON trcstat_ptracer58_sd         =   1.3780694875415342E-04
(PID.TID 0000.0001) %MON trcstat_ptracer58_del2       =   0.0000000000000000E+00
(PID.TID 0000.0001) %MON trcstat_ptracer59_max        =   8.8153867181972601E-04
(PID.TID 0000.0001) %MON trcstat_ptracer59_min        =   0.0000000000000000E+00
(PID.TID 0000.0001) %MON trcstat_ptracer59_mean       =   2.6284899836225204E-05
(PID.TID 0000.0001) %MON trcstat_ptracer59_sd         =   1.3780694875415342E-04
(PID.TID 0000.0001) %MON trcstat_ptracer59_del2       =   0.0000000000000000E+00
(PID.TID 0000.0001) %MON trcstat_ptracer60_max        =   8.8153867181972601E-04
(PID.TID 0000.0001) %MON trcstat_ptracer60_min        =   0.0000000000000000E+00
(PID.TID 0000.0001) %MON trcstat_ptracer60_mean       =   2.6284899836225204E-05
(PID.TID 0000.0001) %MON trcstat_ptracer60_sd         =   1.3780694875415342E-04
(PID.TID 0000.0001) %MON trcstat_ptracer60_del2       =   0.0000000000000000E+00
(PID.TID 0000.0001) %MON trcstat_ptracer61_max        =   8.8153867181972601E-04
(PID.TID 0000.0001) %MON trcstat_ptracer61_min        =   0.0000000000000000E+00
(PID.TID 0000.0001) %MON trcstat_ptracer61_mean       =   2.6284899836225204E-05
(PID.TID 0000.0001) %MON trcstat_ptracer61_sd         =   1.3780694875415342E-04
(PID.TID 0000.0001) %MON trcstat_ptracer61_del2       =   0.0000000000000000E+00
(PID.TID 0000.0001) %MON trcstat_ptracer62_max        =   8.8153867181972601E-04
(PID.TID 0000.0001) %MON trcstat_ptracer62_min        =   0.0000000000000000E+00
(PID.TID 0000.0001) %MON trcstat_ptracer62_mean       =   2.6284899836225204E-05
(PID.TID 0000.0001) %MON trcstat_ptracer62_sd         =   1.3780694875415342E-04
(PID.TID 0000.0001) %MON trcstat_ptracer62_del2       =   0.0000000000000000E+00
(PID.TID 0000.0001) %MON trcstat_ptracer63_max        =   8.8153867181972601E-04
(PID.TID 0000.0001) %MON trcstat_ptracer63_min        =   0.0000000000000000E+00
(PID.TID 0000.0001) %MON trcstat_ptracer63_mean       =   2.6284899836225204E-05
(PID.TID 0000.0001) %MON trcstat_ptracer63_sd         =   1.3780694875415342E-04
(PID.TID 0000.0001) %MON trcstat_ptracer63_del2       =   0.0000000000000000E+00
(PID.TID 0000.0001) %MON trcstat_ptracer64_max        =   8.8153867181972601E-04
(PID.TID 0000.0001) %MON trcstat_ptracer64_min        =   0.0000000000000000E+00
(PID.TID 0000.0001) %MON trcstat_ptracer64_mean       =   2.6284899836225204E-05
(PID.TID 0000.0001) %MON trcstat_ptracer64_sd         =   1.3780694875415342E-04
(PID.TID 0000.0001) %MON trcstat_ptracer64_del2       =   0.0000000000000000E+00
(PID.TID 0000.0001) %MON trcstat_ptracer65_max        =   8.8153867181972601E-04
(PID.TID 0000.0001) %MON trcstat_ptracer65_min        =   0.0000000000000000E+00
(PID.TID 0000.0001) %MON trcstat_ptracer65_mean       =   2.6284899836225204E-05
(PID.TID 0000.0001) %MON trcstat_ptracer65_sd         =   1.3780694875415342E-04
(PID.TID 0000.0001) %MON trcstat_ptracer65_del2       =   0.0000000000000000E+00
(PID.TID 0000.0001) %MON trcstat_ptracer66_max        =   8.8153867181972601E-04
(PID.TID 0000.0001) %MON trcstat_ptracer66_min        =   0.0000000000000000E+00
(PID.TID 0000.0001) %MON trcstat_ptracer66_mean       =   2.6284899836225204E-05
(PID.TID 0000.0001) %MON trcstat_ptracer66_sd         =   1.3780694875415342E-04
(PID.TID 0000.0001) %MON trcstat_ptracer66_del2       =   0.0000000000000000E+00
(PID.TID 0000.0001) %MON trcstat_ptracer67_max        =   8.8153867181972601E-04
(PID.TID 0000.0001) %MON trcstat_ptracer67_min        =   0.0000000000000000E+00
(PID.TID 0000.0001) %MON trcstat_ptracer67_mean       =   2.6284899836225204E-05
(PID.TID 0000.0001) %MON trcstat_ptracer67_sd         =   1.3780694875415342E-04
(PID.TID 0000.0001) %MON trcstat_ptracer67_del2       =   0.0000000000000000E+00
(PID.TID 0000.0001) %MON trcstat_ptracer68_max        =   8.8153867181972601E-04
(PID.TID 0000.0001) %MON trcstat_ptracer68_min        =   0.0000000000000000E+00
(PID.TID 0000.0001) %MON trcstat_ptracer68_mean       =   2.6284899836225204E-05
(PID.TID 0000.0001) %MON trcstat_ptracer68_sd         =   1.3780694875415342E-04
(PID.TID 0000.0001) %MON trcstat_ptracer68_del2       =   0.0000000000000000E+00
(PID.TID 0000.0001) %MON trcstat_ptracer69_max        =   8.8153867181972601E-04
(PID.TID 0000.0001) %MON trcstat_ptracer69_min        =   0.0000000000000000E+00
(PID.TID 0000.0001) %MON trcstat_ptracer69_mean       =   2.6284899836225204E-05
(PID.TID 0000.0001) %MON trcstat_ptracer69_sd         =   1.3780694875415342E-04
(PID.TID 0000.0001) %MON trcstat_ptracer69_del2       =   0.0000000000000000E+00
(PID.TID 0000.0001) %MON trcstat_ptracer70_max        =   8.8153867181972601E-04
(PID.TID 0000.0001) %MON trcstat_ptracer70_min        =   0.0000000000000000E+00
(PID.TID 0000.0001) %MON trcstat_ptracer70_mean       =   2.6284899836225204E-05
(PID.TID 0000.0001) %MON trcstat_ptracer70_sd         =   1.3780694875415342E-04
(PID.TID 0000.0001) %MON trcstat_ptracer70_del2       =   0.0000000000000000E+00
(PID.TID 0000.0001) %MON trcstat_ptracer71_max        =   8.8153867181972601E-04
(PID.TID 0000.0001) %MON trcstat_ptracer71_min        =   0.0000000000000000E+00
(PID.TID 0000.0001) %MON trcstat_ptracer71_mean       =   2.6284899836225204E-05
(PID.TID 0000.0001) %MON trcstat_ptracer71_sd         =   1.3780694875415342E-04
(PID.TID 0000.0001) %MON trcstat_ptracer71_del2       =   0.0000000000000000E+00
(PID.TID 0000.0001) %MON trcstat_ptracer72_max        =   8.8153867181972601E-04
(PID.TID 0000.0001) %MON trcstat_ptracer72_min        =   0.0000000000000000E+00
(PID.TID 0000.0001) %MON trcstat_ptracer72_mean       =   2.6284899836225204E-05
(PID.TID 0000.0001) %MON trcstat_ptracer72_sd         =   1.3780694875415342E-04
(PID.TID 0000.0001) %MON trcstat_ptracer72_del2       =   0.0000000000000000E+00
(PID.TID 0000.0001) %MON trcstat_ptracer73_max        =   8.8153867181972601E-04
(PID.TID 0000.0001) %MON trcstat_ptracer73_min        =   0.0000000000000000E+00
(PID.TID 0000.0001) %MON trcstat_ptracer73_mean       =   2.6284899836225204E-05
(PID.TID 0000.0001) %MON trcstat_ptracer73_sd         =   1.3780694875415342E-04
(PID.TID 0000.0001) %MON trcstat_ptracer73_del2       =   0.0000000000000000E+00
(PID.TID 0000.0001) %MON trcstat_ptracer74_max        =   8.8153867181972601E-04
(PID.TID 0000.0001) %MON trcstat_ptracer74_min        =   0.0000000000000000E+00
(PID.TID 0000.0001) %MON trcstat_ptracer74_mean       =   2.6284899836225204E-05
(PID.TID 0000.0001) %MON trcstat_ptracer74_sd         =   1.3780694875415342E-04
(PID.TID 0000.0001) %MON trcstat_ptracer74_del2       =   0.0000000000000000E+00
(PID.TID 0000.0001) %MON trcstat_ptracer75_max        =   8.8153867181972601E-04
(PID.TID 0000.0001) %MON trcstat_ptracer75_min        =   0.0000000000000000E+00
(PID.TID 0000.0001) %MON trcstat_ptracer75_mean       =   2.6284899836225204E-05
(PID.TID 0000.0001) %MON trcstat_ptracer75_sd         =   1.3780694875415342E-04
(PID.TID 0000.0001) %MON trcstat_ptracer75_del2       =   0.0000000000000000E+00
(PID.TID 0000.0001) %MON trcstat_ptracer76_max        =   8.8153867181972601E-04
(PID.TID 0000.0001) %MON trcstat_ptracer76_min        =   0.0000000000000000E+00
(PID.TID 0000.0001) %MON trcstat_ptracer76_mean       =   2.6284899836225204E-05
(PID.TID 0000.0001) %MON trcstat_ptracer76_sd         =   1.3780694875415342E-04
(PID.TID 0000.0001) %MON trcstat_ptracer76_del2       =   0.0000000000000000E+00
(PID.TID 0000.0001) %MON trcstat_ptracer77_max        =   8.8153867181972601E-04
(PID.TID 0000.0001) %MON trcstat_ptracer77_min        =   0.0000000000000000E+00
(PID.TID 0000.0001) %MON trcstat_ptracer77_mean       =   2.6284899836225204E-05
(PID.TID 0000.0001) %MON trcstat_ptracer77_sd         =   1.3780694875415342E-04
(PID.TID 0000.0001) %MON trcstat_ptracer77_del2       =   0.0000000000000000E+00
(PID.TID 0000.0001) %MON trcstat_ptracer78_max        =   8.8153867181972601E-04
(PID.TID 0000.0001) %MON trcstat_ptracer78_min        =   0.0000000000000000E+00
(PID.TID 0000.0001) %MON trcstat_ptracer78_mean       =   2.6284899836225204E-05
(PID.TID 0000.0001) %MON trcstat_ptracer78_sd         =   1.3780694875415342E-04
(PID.TID 0000.0001) %MON trcstat_ptracer78_del2       =   0.0000000000000000E+00
(PID.TID 0000.0001) %MON trcstat_ptracer79_max        =   8.8153867181972601E-04
(PID.TID 0000.0001) %MON trcstat_ptracer79_min        =   0.0000000000000000E+00
(PID.TID 0000.0001) %MON trcstat_ptracer79_mean       =   2.6284899836225204E-05
(PID.TID 0000.0001) %MON trcstat_ptracer79_sd         =   1.3780694875415342E-04
(PID.TID 0000.0001) %MON trcstat_ptracer79_del2       =   0.0000000000000000E+00
(PID.TID 0000.0001) %MON trcstat_ptracer80_max        =   8.8153867181972601E-04
(PID.TID 0000.0001) %MON trcstat_ptracer80_min        =   0.0000000000000000E+00
(PID.TID 0000.0001) %MON trcstat_ptracer80_mean       =   2.6284899836225204E-05
(PID.TID 0000.0001) %MON trcstat_ptracer80_sd         =   1.3780694875415342E-04
(PID.TID 0000.0001) %MON trcstat_ptracer80_del2       =   0.0000000000000000E+00
(PID.TID 0000.0001) %MON trcstat_ptracer81_max        =   8.8153867181972601E-04
(PID.TID 0000.0001) %MON trcstat_ptracer81_min        =   0.0000000000000000E+00
(PID.TID 0000.0001) %MON trcstat_ptracer81_mean       =   2.6284899836225204E-05
(PID.TID 0000.0001) %MON trcstat_ptracer81_sd         =   1.3780694875415342E-04
(PID.TID 0000.0001) %MON trcstat_ptracer81_del2       =   0.0000000000000000E+00
(PID.TID 0000.0001) %MON trcstat_ptracer82_max        =   8.8153867181972601E-04
(PID.TID 0000.0001) %MON trcstat_ptracer82_min        =   0.0000000000000000E+00
(PID.TID 0000.0001) %MON trcstat_ptracer82_mean       =   2.6284899836225204E-05
(PID.TID 0000.0001) %MON trcstat_ptracer82_sd         =   1.3780694875415342E-04
(PID.TID 0000.0001) %MON trcstat_ptracer82_del2       =   0.0000000000000000E+00
(PID.TID 0000.0001) %MON trcstat_ptracer83_max        =   8.8153867181972601E-04
(PID.TID 0000.0001) %MON trcstat_ptracer83_min        =   0.0000000000000000E+00
(PID.TID 0000.0001) %MON trcstat_ptracer83_mean       =   2.6284899836225204E-05
(PID.TID 0000.0001) %MON trcstat_ptracer83_sd         =   1.3780694875415342E-04
(PID.TID 0000.0001) %MON trcstat_ptracer83_del2       =   0.0000000000000000E+00
(PID.TID 0000.0001) %MON trcstat_ptracer84_max        =   8.8153867181972601E-04
(PID.TID 0000.0001) %MON trcstat_ptracer84_min        =   0.0000000000000000E+00
(PID.TID 0000.0001) %MON trcstat_ptracer84_mean       =   2.6284899836225204E-05
(PID.TID 0000.0001) %MON trcstat_ptracer84_sd         =   1.3780694875415342E-04
(PID.TID 0000.0001) %MON trcstat_ptracer84_del2       =   0.0000000000000000E+00
(PID.TID 0000.0001) %MON trcstat_ptracer85_max        =   8.8153867181972601E-04
(PID.TID 0000.0001) %MON trcstat_ptracer85_min        =   0.0000000000000000E+00
(PID.TID 0000.0001) %MON trcstat_ptracer85_mean       =   2.6284899836225204E-05
(PID.TID 0000.0001) %MON trcstat_ptracer85_sd         =   1.3780694875415342E-04
(PID.TID 0000.0001) %MON trcstat_ptracer85_del2       =   0.0000000000000000E+00
(PID.TID 0000.0001) %MON trcstat_ptracer86_max        =   8.8153867181972601E-04
(PID.TID 0000.0001) %MON trcstat_ptracer86_min        =   0.0000000000000000E+00
(PID.TID 0000.0001) %MON trcstat_ptracer86_mean       =   2.6284899836225204E-05
(PID.TID 0000.0001) %MON trcstat_ptracer86_sd         =   1.3780694875415342E-04
(PID.TID 0000.0001) %MON trcstat_ptracer86_del2       =   0.0000000000000000E+00
(PID.TID 0000.0001) %MON trcstat_ptracer87_max        =   8.8153867181972601E-04
(PID.TID 0000.0001) %MON trcstat_ptracer87_min        =   0.0000000000000000E+00
(PID.TID 0000.0001) %MON trcstat_ptracer87_mean       =   2.6284899836225204E-05
(PID.TID 0000.0001) %MON trcstat_ptracer87_sd         =   1.3780694875415342E-04
(PID.TID 0000.0001) %MON trcstat_ptracer87_del2       =   0.0000000000000000E+00
(PID.TID 0000.0001) %MON trcstat_ptracer88_max        =   8.8153867181972601E-04
(PID.TID 0000.0001) %MON trcstat_ptracer88_min        =   0.0000000000000000E+00
(PID.TID 0000.0001) %MON trcstat_ptracer88_mean       =   2.6284899836225204E-05
(PID.TID 0000.0001) %MON trcstat_ptracer88_sd         =   1.3780694875415342E-04
(PID.TID 0000.0001) %MON trcstat_ptracer88_del2       =   0.0000000000000000E+00
(PID.TID 0000.0001) %MON trcstat_ptracer89_max        =   8.8153867181972601E-04
(PID.TID 0000.0001) %MON trcstat_ptracer89_min        =   0.0000000000000000E+00
(PID.TID 0000.0001) %MON trcstat_ptracer89_mean       =   2.6284899836225204E-05
(PID.TID 0000.0001) %MON trcstat_ptracer89_sd         =   1.3780694875415342E-04
(PID.TID 0000.0001) %MON trcstat_ptracer89_del2       =   0.0000000000000000E+00
(PID.TID 0000.0001) %MON trcstat_ptracer90_max        =   8.8153867181972601E-04
(PID.TID 0000.0001) %MON trcstat_ptracer90_min        =   0.0000000000000000E+00
(PID.TID 0000.0001) %MON trcstat_ptracer90_mean       =   2.6284899836225204E-05
(PID.TID 0000.0001) %MON trcstat_ptracer90_sd         =   1.3780694875415342E-04
(PID.TID 0000.0001) %MON trcstat_ptracer90_del2       =   0.0000000000000000E+00
(PID.TID 0000.0001) %MON trcstat_ptracer91_max        =   8.8153867181972601E-04
(PID.TID 0000.0001) %MON trcstat_ptracer91_min        =   0.0000000000000000E+00
(PID.TID 0000.0001) %MON trcstat_ptracer91_mean       =   2.6284899836225204E-05
(PID.TID 0000.0001) %MON trcstat_ptracer91_sd         =   1.3780694875415342E-04
(PID.TID 0000.0001) %MON trcstat_ptracer91_del2       =   0.0000000000000000E+00
(PID.TID 0000.0001) %MON trcstat_ptracer92_max        =   8.8153867181972601E-04
(PID.TID 0000.0001) %MON trcstat_ptracer92_min        =   0.0000000000000000E+00
(PID.TID 0000.0001) %MON trcstat_ptracer92_mean       =   2.6284899836225204E-05
(PID.TID 0000.0001) %MON trcstat_ptracer92_sd         =   1.3780694875415342E-04
(PID.TID 0000.0001) %MON trcstat_ptracer92_del2       =   0.0000000000000000E+00
(PID.TID 0000.0001) %MON trcstat_ptracer93_max        =   8.8153867181972601E-04
(PID.TID 0000.0001) %MON trcstat_ptracer93_min        =   0.0000000000000000E+00
(PID.TID 0000.0001) %MON trcstat_ptracer93_mean       =   2.6284899836225204E-05
(PID.TID 0000.0001) %MON trcstat_ptracer93_sd         =   1.3780694875415342E-04
(PID.TID 0000.0001) %MON trcstat_ptracer93_del2       =   0.0000000000000000E+00
(PID.TID 0000.0001) %MON trcstat_ptracer94_max        =   8.8153867181972601E-04
(PID.TID 0000.0001) %MON trcstat_ptracer94_min        =   0.0000000000000000E+00
(PID.TID 0000.0001) %MON trcstat_ptracer94_mean       =   2.6284899836225204E-05
(PID.TID 0000.0001) %MON trcstat_ptracer94_sd         =   1.3780694875415342E-04
(PID.TID 0000.0001) %MON trcstat_ptracer94_del2       =   0.0000000000000000E+00
(PID.TID 0000.0001) %MON trcstat_ptracer95_max        =   8.8153867181972601E-04
(PID.TID 0000.0001) %MON trcstat_ptracer95_min        =   0.0000000000000000E+00
(PID.TID 0000.0001) %MON trcstat_ptracer95_mean       =   2.6284899836225204E-05
(PID.TID 0000.0001) %MON trcstat_ptracer95_sd         =   1.3780694875415342E-04
(PID.TID 0000.0001) %MON trcstat_ptracer95_del2       =   0.0000000000000000E+00
(PID.TID 0000.0001) %MON trcstat_ptracer96_max        =   1.2432850748922419E-07
(PID.TID 0000.0001) %MON trcstat_ptracer96_min        =   0.0000000000000000E+00
(PID.TID 0000.0001) %MON trcstat_ptracer96_mean       =   1.6442399905699558E-08
(PID.TID 0000.0001) %MON trcstat_ptracer96_sd         =   3.0074086738691414E-08
(PID.TID 0000.0001) %MON trcstat_ptracer96_del2       =   0.0000000000000000E+00
(PID.TID 0000.0001) %MON trcstat_ptracer97_max        =   1.2432850748922419E-07
(PID.TID 0000.0001) %MON trcstat_ptracer97_min        =   0.0000000000000000E+00
(PID.TID 0000.0001) %MON trcstat_ptracer97_mean       =   1.6442399905699558E-08
(PID.TID 0000.0001) %MON trcstat_ptracer97_sd         =   3.0074086738691414E-08
(PID.TID 0000.0001) %MON trcstat_ptracer97_del2       =   0.0000000000000000E+00
(PID.TID 0000.0001) // =======================================================
(PID.TID 0000.0001) // End MONITOR ptracers field statistics
(PID.TID 0000.0001) // =======================================================
(PID.TID 0000.0001) // =======================================================
(PID.TID 0000.0001) // Begin MONITOR EXF statistics
(PID.TID 0000.0001) // =======================================================
(PID.TID 0000.0001) %MON exf_tsnumber                 =                     0
(PID.TID 0000.0001) %MON exf_time_sec                 =   0.0000000000000000E+00
(PID.TID 0000.0001) %MON exf_ustress_max              =   0.0000000000000000E+00
(PID.TID 0000.0001) %MON exf_ustress_min              =   0.0000000000000000E+00
(PID.TID 0000.0001) %MON exf_ustress_mean             =   0.0000000000000000E+00
(PID.TID 0000.0001) %MON exf_ustress_sd               =   0.0000000000000000E+00
(PID.TID 0000.0001) %MON exf_ustress_del2             =   0.0000000000000000E+00
(PID.TID 0000.0001) %MON exf_vstress_max              =   0.0000000000000000E+00
(PID.TID 0000.0001) %MON exf_vstress_min              =   0.0000000000000000E+00
(PID.TID 0000.0001) %MON exf_vstress_mean             =   0.0000000000000000E+00
(PID.TID 0000.0001) %MON exf_vstress_sd               =   0.0000000000000000E+00
(PID.TID 0000.0001) %MON exf_vstress_del2             =   0.0000000000000000E+00
(PID.TID 0000.0001) %MON exf_hflux_max                =   0.0000000000000000E+00
(PID.TID 0000.0001) %MON exf_hflux_min                =   0.0000000000000000E+00
(PID.TID 0000.0001) %MON exf_hflux_mean               =   0.0000000000000000E+00
(PID.TID 0000.0001) %MON exf_hflux_sd                 =   0.0000000000000000E+00
(PID.TID 0000.0001) %MON exf_hflux_del2               =   0.0000000000000000E+00
(PID.TID 0000.0001) %MON exf_sflux_max                =   0.0000000000000000E+00
(PID.TID 0000.0001) %MON exf_sflux_min                =   0.0000000000000000E+00
(PID.TID 0000.0001) %MON exf_sflux_mean               =   0.0000000000000000E+00
(PID.TID 0000.0001) %MON exf_sflux_sd                 =   0.0000000000000000E+00
(PID.TID 0000.0001) %MON exf_sflux_del2               =   0.0000000000000000E+00
(PID.TID 0000.0001) %MON exf_uwind_max                =   0.0000000000000000E+00
(PID.TID 0000.0001) %MON exf_uwind_min                =   0.0000000000000000E+00
(PID.TID 0000.0001) %MON exf_uwind_mean               =   0.0000000000000000E+00
(PID.TID 0000.0001) %MON exf_uwind_sd                 =   0.0000000000000000E+00
(PID.TID 0000.0001) %MON exf_uwind_del2               =   0.0000000000000000E+00
(PID.TID 0000.0001) %MON exf_vwind_max                =   0.0000000000000000E+00
(PID.TID 0000.0001) %MON exf_vwind_min                =   0.0000000000000000E+00
(PID.TID 0000.0001) %MON exf_vwind_mean               =   0.0000000000000000E+00
(PID.TID 0000.0001) %MON exf_vwind_sd                 =   0.0000000000000000E+00
(PID.TID 0000.0001) %MON exf_vwind_del2               =   0.0000000000000000E+00
(PID.TID 0000.0001) %MON exf_wspeed_max               =   0.0000000000000000E+00
(PID.TID 0000.0001) %MON exf_wspeed_min               =   0.0000000000000000E+00
(PID.TID 0000.0001) %MON exf_wspeed_mean              =   0.0000000000000000E+00
(PID.TID 0000.0001) %MON exf_wspeed_sd                =   0.0000000000000000E+00
(PID.TID 0000.0001) %MON exf_wspeed_del2              =   0.0000000000000000E+00
(PID.TID 0000.0001) %MON exf_evap_max                 =   0.0000000000000000E+00
(PID.TID 0000.0001) %MON exf_evap_min                 =   0.0000000000000000E+00
(PID.TID 0000.0001) %MON exf_evap_mean                =   0.0000000000000000E+00
(PID.TID 0000.0001) %MON exf_evap_sd                  =   0.0000000000000000E+00
(PID.TID 0000.0001) %MON exf_evap_del2                =   0.0000000000000000E+00
(PID.TID 0000.0001) // =======================================================
(PID.TID 0000.0001) // End MONITOR EXF statistics
(PID.TID 0000.0001) // =======================================================
 EXTERNAL_FIELDS_LOAD, it=         0 : Reading new data, i0,i1=   12    1 (prev=   12    0 )
(PID.TID 0000.0001)  MDS_READ_FIELD: opening global file: ../input/input/loc1_temp_monsurf.bin
(PID.TID 0000.0001)  MDS_READ_FIELD: opening global file: ../input/input/loc1_temp_monsurf.bin
(PID.TID 0000.0001)  MDS_READ_FIELD: opening global file: ../input/input/loc1_oasim_edp01_below.bin
(PID.TID 0000.0001)  MDS_READ_FIELD: opening global file: ../input/input/loc1_oasim_edp01_below.bin
(PID.TID 0000.0001)  MDS_READ_FIELD: opening global file: ../input/input/loc1_oasim_esp01_below.bin
(PID.TID 0000.0001)  MDS_READ_FIELD: opening global file: ../input/input/loc1_oasim_esp01_below.bin
(PID.TID 0000.0001)  MDS_READ_FIELD: opening global file: ../input/input/loc1_oasim_edp02_below.bin
(PID.TID 0000.0001)  MDS_READ_FIELD: opening global file: ../input/input/loc1_oasim_edp02_below.bin
(PID.TID 0000.0001)  MDS_READ_FIELD: opening global file: ../input/input/loc1_oasim_esp02_below.bin
(PID.TID 0000.0001)  MDS_READ_FIELD: opening global file: ../input/input/loc1_oasim_esp02_below.bin
(PID.TID 0000.0001)  MDS_READ_FIELD: opening global file: ../input/input/loc1_oasim_edp03_below.bin
(PID.TID 0000.0001)  MDS_READ_FIELD: opening global file: ../input/input/loc1_oasim_edp03_below.bin
(PID.TID 0000.0001)  MDS_READ_FIELD: opening global file: ../input/input/loc1_oasim_esp03_below.bin
(PID.TID 0000.0001)  MDS_READ_FIELD: opening global file: ../input/input/loc1_oasim_esp03_below.bin
(PID.TID 0000.0001)  MDS_READ_FIELD: opening global file: ../input/input/loc1_oasim_edp04_below.bin
(PID.TID 0000.0001)  MDS_READ_FIELD: opening global file: ../input/input/loc1_oasim_edp04_below.bin
(PID.TID 0000.0001)  MDS_READ_FIELD: opening global file: ../input/input/loc1_oasim_esp04_below.bin
(PID.TID 0000.0001)  MDS_READ_FIELD: opening global file: ../input/input/loc1_oasim_esp04_below.bin
(PID.TID 0000.0001)  MDS_READ_FIELD: opening global file: ../input/input/loc1_oasim_edp05_below.bin
(PID.TID 0000.0001)  MDS_READ_FIELD: opening global file: ../input/input/loc1_oasim_edp05_below.bin
(PID.TID 0000.0001)  MDS_READ_FIELD: opening global file: ../input/input/loc1_oasim_esp05_below.bin
(PID.TID 0000.0001)  MDS_READ_FIELD: opening global file: ../input/input/loc1_oasim_esp05_below.bin
(PID.TID 0000.0001)  MDS_READ_FIELD: opening global file: ../input/input/loc1_oasim_edp06_below.bin
(PID.TID 0000.0001)  MDS_READ_FIELD: opening global file: ../input/input/loc1_oasim_edp06_below.bin
(PID.TID 0000.0001)  MDS_READ_FIELD: opening global file: ../input/input/loc1_oasim_esp06_below.bin
(PID.TID 0000.0001)  MDS_READ_FIELD: opening global file: ../input/input/loc1_oasim_esp06_below.bin
(PID.TID 0000.0001)  MDS_READ_FIELD: opening global file: ../input/input/loc1_oasim_edp07_below.bin
(PID.TID 0000.0001)  MDS_READ_FIELD: opening global file: ../input/input/loc1_oasim_edp07_below.bin
(PID.TID 0000.0001)  MDS_READ_FIELD: opening global file: ../input/input/loc1_oasim_esp07_below.bin
(PID.TID 0000.0001)  MDS_READ_FIELD: opening global file: ../input/input/loc1_oasim_esp07_below.bin
(PID.TID 0000.0001)  MDS_READ_FIELD: opening global file: ../input/input/loc1_oasim_edp08_below.bin
(PID.TID 0000.0001)  MDS_READ_FIELD: opening global file: ../input/input/loc1_oasim_edp08_below.bin
(PID.TID 0000.0001)  MDS_READ_FIELD: opening global file: ../input/input/loc1_oasim_esp08_below.bin
(PID.TID 0000.0001)  MDS_READ_FIELD: opening global file: ../input/input/loc1_oasim_esp08_below.bin
(PID.TID 0000.0001)  MDS_READ_FIELD: opening global file: ../input/input/loc1_oasim_edp09_below.bin
(PID.TID 0000.0001)  MDS_READ_FIELD: opening global file: ../input/input/loc1_oasim_edp09_below.bin
(PID.TID 0000.0001)  MDS_READ_FIELD: opening global file: ../input/input/loc1_oasim_esp09_below.bin
(PID.TID 0000.0001)  MDS_READ_FIELD: opening global file: ../input/input/loc1_oasim_esp09_below.bin
(PID.TID 0000.0001)  MDS_READ_FIELD: opening global file: ../input/input/loc1_oasim_edp10_below.bin
(PID.TID 0000.0001)  MDS_READ_FIELD: opening global file: ../input/input/loc1_oasim_edp10_below.bin
(PID.TID 0000.0001)  MDS_READ_FIELD: opening global file: ../input/input/loc1_oasim_esp10_below.bin
(PID.TID 0000.0001)  MDS_READ_FIELD: opening global file: ../input/input/loc1_oasim_esp10_below.bin
(PID.TID 0000.0001)  MDS_READ_FIELD: opening global file: ../input/input/loc1_oasim_edp11_below.bin
(PID.TID 0000.0001)  MDS_READ_FIELD: opening global file: ../input/input/loc1_oasim_edp11_below.bin
(PID.TID 0000.0001)  MDS_READ_FIELD: opening global file: ../input/input/loc1_oasim_esp11_below.bin
(PID.TID 0000.0001)  MDS_READ_FIELD: opening global file: ../input/input/loc1_oasim_esp11_below.bin
(PID.TID 0000.0001)  MDS_READ_FIELD: opening global file: ../input/input/loc1_oasim_edp12_below.bin
(PID.TID 0000.0001)  MDS_READ_FIELD: opening global file: ../input/input/loc1_oasim_edp12_below.bin
(PID.TID 0000.0001)  MDS_READ_FIELD: opening global file: ../input/input/loc1_oasim_esp12_below.bin
(PID.TID 0000.0001)  MDS_READ_FIELD: opening global file: ../input/input/loc1_oasim_esp12_below.bin
(PID.TID 0000.0001)  MDS_READ_FIELD: opening global file: ../input/input/loc1_oasim_edp13_below.bin
(PID.TID 0000.0001)  MDS_READ_FIELD: opening global file: ../input/input/loc1_oasim_edp13_below.bin
(PID.TID 0000.0001)  MDS_READ_FIELD: opening global file: ../input/input/loc1_oasim_esp13_below.bin
(PID.TID 0000.0001)  MDS_READ_FIELD: opening global file: ../input/input/loc1_oasim_esp13_below.bin
(PID.TID 0000.0001)  MDS_READ_FIELD: opening global file: ../input/input/loc1_FeFlux_monsurf.bin
(PID.TID 0000.0001)  MDS_READ_FIELD: opening global file: ../input/input/loc1_FeFlux_monsurf.bin
 Local pointing vectors
 no(2) =   0.27363063147685535      -0.12470066308196398       0.95371695074822704     
 ea(2) =   0.41469324265623930       0.90996127087654310        0.0000000000000000     
 up(2) =   0.86784548855935806      -0.39549997488200311      -0.30070579950427312     
 ac           1   0.0000000000000000        3.0400000000000000E-002
 ac           2   0.0000000000000000        3.8500000000000000E-002
 ac           3   0.0000000000000000        3.0400000000000000E-002
 ac           4   0.0000000000000000        3.0400000000000000E-002
 ac           5   0.0000000000000000        2.9200000000000000E-002
 ac           6   0.0000000000000000        3.8500000000000000E-002
 ac           7   0.0000000000000000        2.4500000000000001E-002
 ac           8   0.0000000000000000        2.4500000000000001E-002
 ac           9   0.0000000000000000        2.9200000000000000E-002
 ac          10   0.0000000000000000        2.9200000000000000E-002
 ac          11   0.0000000000000000        3.0400000000000000E-002
 ac          12   0.0000000000000000        2.4500000000000001E-002
 ac          13   0.0000000000000000        3.0400000000000000E-002
 ac          14   0.0000000000000000        2.4500000000000001E-002
 ac          15   0.0000000000000000        3.0400000000000000E-002
 ac          16   0.0000000000000000        3.0400000000000000E-002
 ac          17   0.0000000000000000        3.0400000000000000E-002
 ac          18   0.0000000000000000        2.9200000000000000E-002
 ac          19   0.0000000000000000        3.0400000000000000E-002
 ac          20   0.0000000000000000        3.0400000000000000E-002
 ac          21   0.0000000000000000        3.0400000000000000E-002
 ac          22   0.0000000000000000        3.0400000000000000E-002
 ac          23   0.0000000000000000        3.8500000000000000E-002
 ac          24   0.0000000000000000        3.0400000000000000E-002
 ac          25   0.0000000000000000        2.4500000000000001E-002
 ac          26   0.0000000000000000        2.4500000000000001E-002
 ac          27   0.0000000000000000        2.4500000000000001E-002
 ac          28   0.0000000000000000        3.8500000000000000E-002
 ac          29   0.0000000000000000        3.0400000000000000E-002
 ac          30   0.0000000000000000        2.9200000000000000E-002
 ac          31   0.0000000000000000        3.0400000000000000E-002
 ac          32   0.0000000000000000        3.0400000000000000E-002
 ac          33   0.0000000000000000        3.0400000000000000E-002
 ac          34   0.0000000000000000        2.9200000000000000E-002
 ac          35   0.0000000000000000        2.9200000000000000E-002
 ac          36   0.0000000000000000        3.0400000000000000E-002
 ac          37   0.0000000000000000        3.0400000000000000E-002
 ac          38   0.0000000000000000        3.0400000000000000E-002
 ac          39   0.0000000000000000        2.9200000000000000E-002
 ac          40   0.0000000000000000        3.0400000000000000E-002
 ac          41   0.0000000000000000        2.9200000000000000E-002
 ac          42   0.0000000000000000        3.0400000000000000E-002
 ac          43   0.0000000000000000        3.0400000000000000E-002
 ac          44   0.0000000000000000        3.0400000000000000E-002
 ac          45   0.0000000000000000        2.4500000000000001E-002
 ac          46   0.0000000000000000        3.0400000000000000E-002
 ac          47   0.0000000000000000        3.0400000000000000E-002
 ac          48   0.0000000000000000        3.0400000000000000E-002
 ac          49   0.0000000000000000        3.0400000000000000E-002
 ac          50   0.0000000000000000        3.0400000000000000E-002
 ac          51   0.0000000000000000        3.0400000000000000E-002
 ac          52   0.0000000000000000        3.0400000000000000E-002
 ac          53   0.0000000000000000        3.0400000000000000E-002
 ac          54   0.0000000000000000        3.0400000000000000E-002
 ac          55   0.0000000000000000        3.0400000000000000E-002
 ac          56   0.0000000000000000        3.0400000000000000E-002
 ac          57   0.0000000000000000        3.0400000000000000E-002
 ac          58   0.0000000000000000        3.0400000000000000E-002
 ac          59   0.0000000000000000        3.0400000000000000E-002
 ac          60   0.0000000000000000        3.0400000000000000E-002
 ac          61   0.0000000000000000        3.0400000000000000E-002
 ac          62   0.0000000000000000        3.0400000000000000E-002
 ac          63   0.0000000000000000        3.0400000000000000E-002
 ac          64   0.0000000000000000        2.9200000000000000E-002
 ac          65   0.0000000000000000        3.0400000000000000E-002
 ac          66   0.0000000000000000        3.8500000000000000E-002
 ac          67   0.0000000000000000        3.0400000000000000E-002
 ac          68   0.0000000000000000        3.0400000000000000E-002
 ac          69   0.0000000000000000        3.0400000000000000E-002
 ac          70   0.0000000000000000        3.8500000000000000E-002
 ac          71   0.0000000000000000        2.4500000000000001E-002
 ac          72   0.0000000000000000        3.0400000000000000E-002
 ac          73   0.0000000000000000        3.8500000000000000E-002
 ac          74   0.0000000000000000        3.0400000000000000E-002
 ac          75   0.0000000000000000        3.0400000000000000E-002
 ac          76   0.0000000000000000        3.0400000000000000E-002
 ac          77   0.0000000000000000        3.0400000000000000E-002
 ac          78   0.0000000000000000        2.4500000000000001E-002
 abs           1           1   9.6462145432073629E-003   7.6564174801061992E-003   3.8003052185673746E-003   6.3000000000000000E-003   3.3428294944009914E-003   0.0000000000000000        3.3850488063719284E-006
 abs           1           2   7.4583845066621074E-003   5.8530988048058341E-003   2.9002872645339994E-003   5.1000000000000004E-003   2.3556521306648073E-003   0.0000000000000000        2.7323759973002164E-006
 abs           1           3   9.9621682011962389E-003   4.5470145667551656E-003   2.2502543488061451E-003   8.3000000000000001E-003   1.6600000000000000E-003   0.0000000000000000        2.1682011962382288E-006
 abs           1           4   1.3071552189093260E-002   3.6481207918552870E-003   1.8002603334839370E-003   1.1900000000000001E-002   1.1697822289330642E-003   0.0000000000000000        1.7699601601944725E-006
 abs           1           5   2.2325758634672895E-002   2.9459083416550438E-003   1.4502483641283537E-003   2.1499999999999998E-002   8.2433160429373970E-004   0.0000000000000000        1.4270303791567935E-006
 abs           1           6   4.1282047137628647E-002   2.3434746464347767E-003   1.1502351978372122E-003   4.0700000000000000E-002   5.8089666352451790E-004   0.0000000000000000        1.1504741041264071E-006
 abs           1           7   5.5410287932802865E-002   1.9414834412545580E-003   9.5022442541718721E-004   5.5000000000000000E-002   4.0935096014306667E-004   0.0000000000000000        9.3697265980294882E-007
 abs           1           8   8.5189230253897033E-002   1.6399347261143878E-003   8.0021604686827887E-004   8.4900000000000003E-002   2.8846474612773896E-004   0.0000000000000000        7.6550776928410929E-007
 abs           1           9  0.19970389383828072        1.4383860109742177E-003   7.0020766831937055E-004  0.19950000000000001        2.0327767089994999E-004   0.0000000000000000        6.1616738076770065E-007
 abs           1          10  0.28514374404865889        1.2369479183440596E-003   6.0019988823824136E-004  0.28499999999999998        1.4324735358895504E-004   0.0000000000000000        4.9669506995457379E-007
 abs           1          11  0.35130134736989432        9.3495671316384083E-004   4.5018911581821638E-004  0.35120000000000001        1.0094470395786181E-004   0.0000000000000000        4.0266593644424244E-007
 abs           1          12  0.45597146418567913        7.3407173308374354E-004   3.5018432807598307E-004  0.45590000000000003        7.1134530599286717E-005   0.0000000000000000        3.2965507983622046E-007
 abs           1          13  0.64335039425673013        7.3307613049363417E-004   3.5017894186597056E-004  0.64329999999999998        5.0127656481048711E-005   0.0000000000000000        2.6660024912929240E-007
 abs           2           1   9.6468837170592212E-003   7.6675703776371840E-003   3.8003655557430171E-003   6.3000000000000000E-003   3.3428294944009914E-003   0.0000000000000000        4.0542226582310375E-006
 abs           2           2   7.4589246567974320E-003   5.8635956495408786E-003   2.9003440524640158E-003   5.1000000000000004E-003   2.3556521306648073E-003   0.0000000000000000        3.2725261326243996E-006
 abs           2           3   9.9625968223562532E-003   4.5563086480309859E-003   2.2503046297858475E-003   8.3000000000000001E-003   1.6600000000000000E-003   0.0000000000000000        2.5968223562525603E-006
 abs           2           4   1.3071902083917761E-002   3.6576335573964215E-003   1.8003117975455146E-003   1.1900000000000001E-002   1.1697822289330642E-003   0.0000000000000000        2.1198549846959676E-006
 abs           2           5   2.2326040737375149E-002   2.9549837386655515E-003   1.4502974620261805E-003   2.1499999999999998E-002   8.2433160429373970E-004   0.0000000000000000        1.7091330814111239E-006
 abs           2           6   4.1282274569264567E-002   2.3520689380615947E-003   1.1502816929549132E-003   4.0700000000000000E-002   5.8089666352451790E-004   0.0000000000000000        1.3779057400523789E-006
 abs           2           7   5.5410473158375592E-002   1.9496841012038117E-003   9.5026879098751257E-004   5.5000000000000000E-002   4.0935096014306667E-004   0.0000000000000000        1.1221982325234278E-006
 abs           2           8   8.5189381583408635E-002   1.6478292280922029E-003   8.0025875612397884E-004   8.4900000000000003E-002   2.8846474612773896E-004   0.0000000000000000        9.1683728088100593E-007
 abs           2           9  0.19970401564541651        1.4459743549805938E-003   7.0024872126044503E-004  0.19950000000000001        2.0327767089994999E-004   0.0000000000000000        7.3797451654728361E-007
 abs           2          10  0.28514384223789402        1.2442519728055282E-003   6.0023940317287781E-004  0.28499999999999998        1.4324735358895504E-004   0.0000000000000000        5.9488430508030586E-007
 abs           2          11  0.35130142697096689        9.4186713594774534E-004   4.5022650120547726E-004  0.35120000000000001        1.0094470395786181E-004   0.0000000000000000        4.8226700901833254E-007
 abs           2          12  0.45597152935359020        7.4080720845539738E-004   3.5022076699774368E-004  0.45590000000000003        7.1134530599286717E-005   0.0000000000000000        3.9482299089962388E-007
 abs           2          13  0.64335044695963806        7.3961479002650589E-004   3.5021431601404339E-004  0.64329999999999998        5.0127656481048711E-005   0.0000000000000000        3.1930315706983011E-007
 abs           3           1   9.6471346060060508E-003   7.6717518600843198E-003   3.8003881775630563E-003   6.3000000000000000E-003   3.3428294944009914E-003   0.0000000000000000        4.3051116050591857E-006
 abs           3           2   7.4591271717316361E-003   5.8675311624323007E-003   2.9003653435887584E-003   5.1000000000000004E-003   2.3556521306648073E-003   0.0000000000000000        3.4750410668288191E-006
 abs           3           3   9.9627575224659863E-003   4.5597932167369326E-003   2.2503234813025467E-003   8.3000000000000001E-003   1.6600000000000000E-003   0.0000000000000000        2.7575224659856219E-006
 abs           3           4   1.3072033267680808E-002   3.6612001159542725E-003   1.8003310926273126E-003   1.1900000000000001E-002   1.1697822289330642E-003   0.0000000000000000        2.2510387477433652E-006
 abs           3           5   2.2326146504284109E-002   2.9583863175195934E-003   1.4503158699777810E-003   2.1499999999999998E-002   8.2433160429373970E-004   0.0000000000000000        1.8148999903680881E-006
 abs           3           6   4.1282359838710550E-002   2.3552911392414463E-003   1.1502991250632961E-003   4.0700000000000000E-002   5.8089666352451790E-004   0.0000000000000000        1.4631751860331872E-006
 abs           3           7   5.5410542603780151E-002   1.9527587206502352E-003   9.5028542467871780E-004   5.5000000000000000E-002   4.0935096014306667E-004   0.0000000000000000        1.1916436370866438E-006
 abs           3           8   8.5189438320386141E-002   1.6507890617459596E-003   8.0027476882404568E-004   8.4900000000000003E-002   2.8846474612773896E-004   0.0000000000000000        9.7357425839900534E-007
 abs           3           9  0.19970406131376403        1.4488194028416841E-003   7.0026411296937347E-004  0.19950000000000001        2.0327767089994999E-004   0.0000000000000000        7.8364286405815883E-007
 abs           3          10  0.28514387905133753        1.2469904338591425E-003   6.0025421824717786E-004  0.28499999999999998        1.4324735358895504E-004   0.0000000000000000        6.3169774858548178E-007
 abs           3          11  0.35130145681527303        9.4445801526793147E-004   4.5024051786259951E-004  0.35120000000000001        1.0094470395786181E-004   0.0000000000000000        5.1211131511161544E-007
 abs           3          12  0.45597155378656606        7.4333249589405973E-004   3.5023442880278684E-004  0.45590000000000003        7.1134530599286717E-005   0.0000000000000000        4.1925596676720167E-007
 abs           3          13  0.64335046671919238        7.4206628659845416E-004   3.5022757861049762E-004  0.64329999999999998        5.0127656481048711E-005   0.0000000000000000        3.3906271137884433E-007
 abs           4           1   9.6474879157684990E-003   7.6776403561251254E-003   3.8004200343266371E-003   6.3000000000000000E-003   3.3428294944009914E-003   0.0000000000000000        4.6584213675075034E-006
 abs           4           2   7.4594123596771417E-003   5.8730732763530588E-003   2.9003953264250698E-003   5.1000000000000004E-003   2.3556521306648073E-003   0.0000000000000000        3.7602290123344880E-006
 abs           4           3   9.9629838254510841E-003   4.5647002967709373E-003   2.2503500286055306E-003   8.3000000000000001E-003   1.6600000000000000E-003   0.0000000000000000        2.9838254510832377E-006
 abs           4           4   1.3072218004811500E-002   3.6662226566949595E-003   1.8003582645727196E-003   1.1900000000000001E-002   1.1697822289330642E-003   0.0000000000000000        2.4357758784352962E-006
 abs           4           5   2.2326295448595729E-002   2.9631779368469151E-003   1.4503417926383416E-003   2.1499999999999998E-002   8.2433160429373970E-004   0.0000000000000000        1.9638443019884576E-006
 abs           4           6   4.1282479917845498E-002   2.3598287450140669E-003   1.1503236735105262E-003   4.0700000000000000E-002   5.8089666352451790E-004   0.0000000000000000        1.5832543209829424E-006
 abs           4           7   5.5410640398998713E-002   1.9570884971508271E-003   9.5030884876958594E-004   5.5000000000000000E-002   4.0935096014306667E-004   0.0000000000000000        1.2894388556466850E-006
 abs           4           8   8.5189518219195168E-002   1.6549571932571964E-003   8.0029731841552143E-004   8.4900000000000003E-002   2.8846474612773896E-004   0.0000000000000000        1.0534730674232655E-006
 abs           4           9  0.19970412562537765        1.4528258893635655E-003   7.0028578806145684E-004  0.19950000000000001        2.0327767089994999E-004   0.0000000000000000        8.4795447768028742E-007
 abs           4          10  0.28514393089319479        1.2508468214623366E-003   6.0027508130411117E-004  0.28499999999999998        1.4324735358895504E-004   0.0000000000000000        6.8353960588590497E-007
 abs           4          11  0.35130149884297024        9.4810657359909703E-004   4.5026025656317111E-004  0.35120000000000001        1.0094470395786181E-004   0.0000000000000000        5.5413901234402982E-007
 abs           4          12  0.45597158819385664        7.4688868565987948E-004   3.5025366778941992E-004  0.45590000000000003        7.1134530599286717E-005   0.0000000000000000        4.5366325735857383E-007
 abs           4          13  0.64335049454522275        7.4551856172825953E-004   3.5024625541894990E-004  0.64329999999999998        5.0127656481048711E-005   0.0000000000000000        3.6688874168931643E-007
 abs           5           1   9.6478755353461496E-003   7.6841006824193052E-003   3.8004549846918883E-003   6.3000000000000000E-003   3.3428294944009914E-003   0.0000000000000000        5.0460409451583293E-006
 abs           5           2   7.4597252421466833E-003   5.8791535834534633E-003   2.9004282208864832E-003   5.1000000000000004E-003   2.3556521306648073E-003   0.0000000000000000        4.0731114818761680E-006
 abs           5           3   9.9632321046576825E-003   4.5700839020160876E-003   2.2503791539099068E-003   8.3000000000000001E-003   1.6600000000000000E-003   0.0000000000000000        3.2321046576831132E-006
 abs           5           4   1.3072420681714847E-002   3.6717329350047017E-003   1.8003880751783754E-003   1.1900000000000001E-002   1.1697822289330642E-003   0.0000000000000000        2.6384527817821332E-006
 abs           5           5   2.2326458856849050E-002   2.9684348690274739E-003   1.4503702326414385E-003   2.1499999999999998E-002   8.2433160429373970E-004   0.0000000000000000        2.1272525553118448E-006
 abs           5           6   4.1282611657832674E-002   2.3648069964525235E-003   1.1503506058508082E-003   4.0700000000000000E-002   5.8089666352451790E-004   0.0000000000000000        1.7149943081583865E-006
 abs           5           7   5.5410747691084422E-002   1.9618387370730185E-003   9.5033454756756502E-004   5.5000000000000000E-002   4.0935096014306667E-004   0.0000000000000000        1.3967309413559169E-006
 abs           5           8   8.5189605876955871E-002   1.6595300908889595E-003   8.0032205779170926E-004   8.4900000000000003E-002   2.8846474612773896E-004   0.0000000000000000        1.1411308281207727E-006
 abs           5           9  0.19970419618227461        1.4572214447048999E-003   7.0030956801585352E-004  0.19950000000000001        2.0327767089994999E-004   0.0000000000000000        9.1851137465790504E-007
 abs           5          10  0.28514398776940081        1.2550777018197020E-003   6.0029797036684456E-004  0.28499999999999998        1.4324735358895504E-004   0.0000000000000000        7.4041581188761113E-007
 abs           5          11  0.35130154495196575        9.5210944244019714E-004   4.5028191208360143E-004  0.35120000000000001        1.0094470395786181E-004   0.0000000000000000        6.0024800785543526E-007
 abs           5          12  0.45597162594242990        7.5079021604930604E-004   3.5027477506882675E-004  0.45590000000000003        7.1134530599286717E-005   0.0000000000000000        4.9141183060692229E-007
 abs           5          13  0.64335052507343127        7.4930608635955355E-004   3.5026674592720516E-004  0.64329999999999998        5.0127656481048711E-005   0.0000000000000000        3.9741695025593378E-007
 abs           6           1   9.6485048597987517E-003   7.6945894232960067E-003   3.8005117287800315E-003   6.3000000000000000E-003   3.3428294944009914E-003   0.0000000000000000        5.6753653977603803E-006
 abs           6           2   7.4602332262636529E-003   5.8890253395727111E-003   2.9004816270870883E-003   5.1000000000000004E-003   2.3556521306648073E-003   0.0000000000000000        4.5810955988457967E-006
 abs           6           3   9.9636352013658860E-003   4.5788245194133383E-003   2.2504264406500258E-003   8.3000000000000001E-003   1.6600000000000000E-003   0.0000000000000000        3.6352013658857340E-006
 abs           6           4   1.3072749740252156E-002   3.6806792139877698E-003   1.8004364745476738E-003   1.1900000000000001E-002   1.1697822289330642E-003   0.0000000000000000        2.9675113190903950E-006
 abs           6           5   2.2326724160294756E-002   2.9769698248389071E-003   1.4504164067523785E-003   2.1499999999999998E-002   8.2433160429373970E-004   0.0000000000000000        2.3925560010166312E-006
 abs           6           6   4.1282825545881925E-002   2.3728894967751579E-003   1.1503943321775536E-003   4.0700000000000000E-002   5.8089666352451790E-004   0.0000000000000000        1.9288823574087566E-006
 abs           6           7   5.5410921886447612E-002   1.9695510465411810E-003   9.5037627116178775E-004   5.5000000000000000E-002   4.0935096014306667E-004   0.0000000000000000        1.5709263045434779E-006
 abs           6           8   8.5189748194773249E-002   1.6669544741369771E-003   8.0036222370508104E-004   8.4900000000000003E-002   2.8846474612773896E-004   0.0000000000000000        1.2834486455065958E-006
 abs           6           9  0.19970431073577791        1.4643579017327730E-003   7.0034817624837434E-004  0.19950000000000001        2.0327767089994999E-004   0.0000000000000000        1.0330648779583437E-006
 abs           6          10  0.28514408011145287        1.2619467987860118E-003   6.0033513218143227E-004  0.28499999999999998        1.4324735358895504E-004   0.0000000000000000        8.3275786391974218E-007
 abs           6          11  0.35130161981278296        9.5860834855203522E-004   4.5031707116566650E-004  0.35120000000000001        1.0094470395786181E-004   0.0000000000000000        6.7510882509306482E-007
 abs           6          12  0.45597168722958248        7.5712459289249006E-004   3.5030904404754836E-004  0.45590000000000003        7.1134530599286717E-005   0.0000000000000000        5.5269898318058598E-007
 abs           6          13  0.64335057463787348        7.5545536777550171E-004   3.5030001353966549E-004  0.64329999999999998        5.0127656481048711E-005   0.0000000000000000        4.4698139243799075E-007
 abs           7           1   9.6491342658913890E-003   7.7050795248399771E-003   3.8005684802293843E-003   6.3000000000000000E-003   3.3428294944009914E-003   0.0000000000000000        6.3047714903986034E-006
 abs           7           2   7.4607412762796059E-003   5.8988983763199774E-003   2.9005350402158910E-003   5.1000000000000004E-003   2.3556521306648073E-003   0.0000000000000000        5.0891456147988721E-006
 abs           7           3   9.9640383503663988E-003   4.5875662706999802E-003   2.2504737335244866E-003   8.3000000000000001E-003   1.6600000000000000E-003   0.0000000000000000        4.0383503663991057E-006
 abs           7           4   1.3073078841477065E-002   3.6896266535399800E-003   1.8004848801956512E-003   1.1900000000000001E-002   1.1697822289330642E-003   0.0000000000000000        3.2966125439992700E-006
 abs           7           5   2.2326989498157340E-002   2.9855058878599807E-003   1.4504625868533225E-003   2.1499999999999998E-002   8.2433160429373970E-004   0.0000000000000000        2.6578938635994116E-006
 abs           7           6   4.1283039461678120E-002   2.3809730456119818E-003   1.1504380641767608E-003   4.0700000000000000E-002   5.8089666352451790E-004   0.0000000000000000        2.1427981535995253E-006
 abs           7           7   5.5411096104408544E-002   1.9772643564999830E-003   9.5041800016866485E-004   5.5000000000000000E-002   4.0935096014306667E-004   0.0000000000000000        1.7451442654796135E-006
 abs           7           8   8.5189890531053025E-002   1.6743798205239835E-003   8.0040239482903478E-004   8.4900000000000003E-002   2.8846474612773896E-004   0.0000000000000000        1.4257849252796844E-006
 abs           7           9  0.19970442530414184        1.4714952845479841E-003   7.0038678948940462E-004  0.19950000000000001        2.0327767089994999E-004   0.0000000000000000        1.1476332418797458E-006
 abs           7          10  0.28514417246548407        1.2688167868559848E-003   6.0037229881689078E-004  0.28499999999999998        1.4324735358895504E-004   0.0000000000000000        9.2511189515979520E-007
 abs           7          11  0.35130169468331168        9.6510809774398554E-004   4.5035223480879497E-004  0.35120000000000001        1.0094470395786181E-004   0.0000000000000000        7.4997935375983385E-007
 abs           7          12  0.45597174852468558        7.6345979147198590E-004   3.5034331747186344E-004  0.45590000000000003        7.1134530599286717E-005   0.0000000000000000        6.1399408631986400E-007
 abs           7          13  0.64335062420874545        7.6160544691598637E-004   3.5033328546781549E-004  0.64329999999999998        5.0127656481048711E-005   0.0000000000000000        4.9655226443989003E-007
 abs           8           1   9.6497476713546092E-003   7.7153029492269690E-003   3.8006237889553181E-003   6.3000000000000000E-003   3.3428294944009914E-003   0.0000000000000000        6.9181769536181602E-006
 abs           8           2   7.4612364107548195E-003   5.9085204228018530E-003   2.9005870954873576E-003   5.1000000000000004E-003   2.3556521306648073E-003   0.0000000000000000        5.5842800900120436E-006
 abs           8           3   9.9644312505977432E-003   4.5960857910224738E-003   2.2505198241294312E-003   8.3000000000000001E-003   1.6600000000000000E-003   0.0000000000000000        4.4312505977423512E-006
 abs           8           4   1.3073399576359794E-002   3.6983466331641794E-003   1.8005320552854183E-003   1.1900000000000001E-002   1.1697822289330642E-003   0.0000000000000000        3.6173474267284500E-006
 abs           8           5   2.2327248090656539E-002   2.9938249488807691E-003   1.4505075929734448E-003   2.1499999999999998E-002   8.2433160429373970E-004   0.0000000000000000        2.9164863627998128E-006
 abs           8           6   4.1283247939351890E-002   2.3888510961690176E-003   1.1504806844302743E-003   4.0700000000000000E-002   5.8089666352451790E-004   0.0000000000000000        2.3512758273734923E-006
 abs           8           7   5.5411265893437089E-002   1.9847815803139481E-003   9.5045866834949841E-004   5.5000000000000000E-002   4.0935096014306667E-004   0.0000000000000000        1.9149332940243733E-006
 abs           8           8   8.5190029248889812E-002   1.6816164013155608E-003   8.0044154473111724E-004   8.4900000000000003E-002   2.8846474612773896E-004   0.0000000000000000        1.5645027620600545E-006
 abs           8           9  0.19970453695997289        1.4784512223171733E-003   7.0042442111273588E-004  0.19950000000000001        2.0327767089994999E-004   0.0000000000000000        1.2592890729298416E-006
 abs           8          10  0.28514426247171054        1.2755121275329563E-003   6.0040852060995323E-004  0.28499999999999998        1.4324735358895504E-004   0.0000000000000000        1.0151181216256713E-006
 abs           8          11  0.35130176765049748        9.7144261167788682E-004   4.5038650452917738E-004  0.35120000000000001        1.0094470395786181E-004   0.0000000000000000        8.2294653958072223E-007
 abs           8          12  0.45597180826155753        7.6963393796452260E-004   3.5037671960438808E-004  0.45590000000000003        7.1134530599286717E-005   0.0000000000000000        6.7373095822817370E-007
 abs           8          13  0.64335067251943723        7.6759918003698792E-004   3.5036571156400010E-004  0.64329999999999998        5.0127656481048711E-005   0.0000000000000000        5.4486295615097266E-007
 abs           9           1   9.6503609482635581E-003   7.7255242310427944E-003   3.8006790860899415E-003   6.3000000000000000E-003   3.3428294944009914E-003   0.0000000000000000        7.5314538625676598E-006
 abs           9           2   7.4617314414623702E-003   5.9181404527461588E-003   2.9006391398493565E-003   5.1000000000000004E-003   2.3556521306648073E-003   0.0000000000000000        6.0793107975627836E-006
 abs           9           3   9.9648240684871350E-003   4.6046035258689947E-003   2.2505659050749511E-003   8.3000000000000001E-003   1.6600000000000000E-003   0.0000000000000000        4.8240684871348415E-006
 abs           9           4   1.3073720244024605E-002   3.7070647853012068E-003   1.8005792204884795E-003   1.1900000000000001E-002   1.1697822289330642E-003   0.0000000000000000        3.9380150915386461E-006
 abs           9           5   2.2327506628961293E-002   3.0021422664367834E-003   1.4505525896614229E-003   2.1499999999999998E-002   8.2433160429373970E-004   0.0000000000000000        3.1750246675530332E-006
 abs           9           6   4.1283456373334020E-002   2.3967274956859181E-003   1.1505232957516609E-003   4.0700000000000000E-002   5.8089666352451790E-004   0.0000000000000000        2.5597098095001197E-006
 abs           9           7   5.5411435646882147E-002   1.9922972287079368E-003   9.5049932800730995E-004   5.5000000000000000E-002   4.0935096014306667E-004   0.0000000000000000        2.0846867390832710E-006
 abs           9           8   8.5190167937654840E-002   1.6888514655028408E-003   8.0048068642837042E-004   8.4900000000000003E-002   2.8846474612773896E-004   0.0000000000000000        1.7031915270904643E-006
 abs           9           9  0.19970464859240369        1.4854057022977445E-003   7.0046204484943081E-004  0.19950000000000001        2.0327767089994999E-004   0.0000000000000000        1.3709215037418910E-006
 abs           9          10  0.28514435245907399        1.2822060650358692E-003   6.0044473481184397E-004  0.28499999999999998        1.4324735358895504E-004   0.0000000000000000        1.1051054850630325E-006
 abs           9          11  0.35130184060239122        9.7777579805788817E-004   4.5042076706749317E-004  0.35120000000000001        1.0094470395786181E-004   0.0000000000000000        8.9589843332504191E-007
 abs           9          12  0.45597186798591011        7.7580679051211896E-004   3.5041011473667058E-004  0.45590000000000003        7.1134530599286717E-005   0.0000000000000000        7.3345531079907271E-007
 abs           9          13  0.64335072082000422        7.7359165702312841E-004   3.5039813086449510E-004  0.64329999999999998        5.0127656481048711E-005   0.0000000000000000        5.9316352316300855E-007
 abs          10           1   9.6506328734987830E-003   7.7300563182965357E-003   3.8007036046819841E-003   6.3000000000000000E-003   3.3428294944009914E-003   0.0000000000000000        7.8033790977921473E-006
 abs          10           2   7.4619509366685806E-003   5.9224059466320336E-003   2.9006622161712793E-003   5.1000000000000004E-003   2.3556521306648073E-003   0.0000000000000000        6.2988060037733983E-006
 abs          10           3   9.9649982428208078E-003   4.6083802652471129E-003   2.2505863372349866E-003   8.3000000000000001E-003   1.6600000000000000E-003   0.0000000000000000        4.9982428208080412E-006
 abs          10           4   1.3073862427154134E-002   3.7109303891352803E-003   1.8006001334052218E-003   1.1900000000000001E-002   1.1697822289330642E-003   0.0000000000000000        4.0801982210677894E-006
 abs          10           5   2.2327621264109476E-002   3.0058301413589455E-003   1.4505725410647518E-003   2.1499999999999998E-002   8.2433160429373970E-004   0.0000000000000000        3.2896598157359052E-006
 abs          10           6   4.1283548792368209E-002   2.4002198688049775E-003   1.1505421894902350E-003   4.0700000000000000E-002   5.8089666352451790E-004   0.0000000000000000        2.6521288436940627E-006
 abs          10           7   5.5411510915076345E-002   1.9956296458062761E-003   9.5051735638381190E-004   5.5000000000000000E-002   4.0935096014306667E-004   0.0000000000000000        2.1599549332777611E-006
 abs          10           8   8.5190229431858361E-002   1.6920594723628421E-003   8.0049804174548301E-004   8.4900000000000003E-002   2.8846474612773896E-004   0.0000000000000000        1.7646857306118188E-006
 abs          10           9  0.19970469808990568        1.4884892989194076E-003   7.0047872710715404E-004  0.19950000000000001        2.0327767089994999E-004   0.0000000000000000        1.4204190057092241E-006
 abs          10          10  0.28514439235921474        1.2851741378647899E-003   6.0046079208584844E-004  0.28499999999999998        1.4324735358895504E-004   0.0000000000000000        1.1450056257871484E-006
 abs          10          11  0.35130187294905318        9.8058391486608885E-004   4.5043595897942555E-004  0.35120000000000001        1.0094470395786181E-004   0.0000000000000000        9.2824509529292195E-007
 abs          10          12  0.45597189446751796        7.7854381575555493E-004   3.5042492204323756E-004  0.45590000000000003        7.1134530599286717E-005   0.0000000000000000        7.5993691867387559E-007
 abs          10          13  0.64335074223633804        7.7624870425620424E-004   3.5041250549002606E-004  0.64329999999999998        5.0127656481048711E-005   0.0000000000000000        6.1457985704833572E-007
 abs          11           1   9.6507909046493652E-003   7.7326901708062298E-003   3.8007178538240617E-003   6.3000000000000000E-003   3.3428294944009914E-003   0.0000000000000000        7.9614102483737995E-006
 abs          11           2   7.4620784977607168E-003   5.9248848666411573E-003   2.9006756271285285E-003   5.1000000000000004E-003   2.3556521306648073E-003   0.0000000000000000        6.4263670959095700E-006
 abs          11           3   9.9650994653878479E-003   4.6105751423385251E-003   2.2505982115200514E-003   8.3000000000000001E-003   1.6600000000000000E-003   0.0000000000000000        5.0994653878472709E-006
 abs          11           4   1.3073945057821104E-002   3.7131769103935491E-003   1.8006122870852291E-003   1.1900000000000001E-002   1.1697822289330642E-003   0.0000000000000000        4.1628288880385882E-006
 abs          11           5   2.2327687885084720E-002   3.0079733742835006E-003   1.4505841359548736E-003   2.1499999999999998E-002   8.2433160429373970E-004   0.0000000000000000        3.3562807909811118E-006
 abs          11           6   4.1283602502301744E-002   2.4022494845624479E-003   1.1505531697114828E-003   4.0700000000000000E-002   5.8089666352451790E-004   0.0000000000000000        2.7058387772250824E-006
 abs          11           7   5.5411554657685672E-002   1.9975663020634043E-003   9.5052783369416302E-004   5.5000000000000000E-002   4.0935096014306667E-004   0.0000000000000000        2.2036975426054278E-006
 abs          11           8   8.5190265169621832E-002   1.6939238267863707E-003   8.0050812790291429E-004   8.4900000000000003E-002   2.8846474612773896E-004   0.0000000000000000        1.8004234940766894E-006
 abs          11           9  0.19970472685570662        1.4902813515093368E-003   7.0048842211166548E-004  0.19950000000000001        2.0327767089994999E-004   0.0000000000000000        1.4491848066484333E-006
 abs          11          10  0.28514441554744563        1.2868990530378055E-003   6.0047012387693451E-004  0.28499999999999998        1.4324735358895504E-004   0.0000000000000000        1.1681938567058288E-006
 abs          11          11  0.35130189174752990        9.8221587053876199E-004   4.5044478785961466E-004  0.35120000000000001        1.0094470395786181E-004   0.0000000000000000        9.4704357202877877E-007
 abs          11          12  0.45597190985747971        7.8013445609474285E-004   3.5043352740747255E-004  0.45590000000000003        7.1134530599286717E-005   0.0000000000000000        7.7532688039718699E-007
 abs          11          13  0.64335075468258229        7.7779286484522107E-004   3.5042085939881263E-004  0.64329999999999998        5.0127656481048711E-005   0.0000000000000000        6.2702610126081236E-007
 abs          12           1   9.6509488528894079E-003   7.7353226414736027E-003   3.8007320954903724E-003   6.3000000000000000E-003   3.3428294944009914E-003   0.0000000000000000        8.1193584884161438E-006
 abs          12           2   7.4622059919283324E-003   5.9273624860928017E-003   2.9006890310497619E-003   5.1000000000000004E-003   2.3556521306648073E-003   0.0000000000000000        6.5538612635254482E-006
 abs          12           3   9.9652006348487903E-003   4.6127688678946682E-003   2.2506100795753100E-003   8.3000000000000001E-003   1.6600000000000000E-003   0.0000000000000000        5.2006348487894254E-006
 abs          12           4   1.3074027645136158E-002   3.7154222530216018E-003   1.8006244343888467E-003   1.1900000000000001E-002   1.1697822289330642E-003   0.0000000000000000        4.2454162030934087E-006
 abs          12           5   2.2327754471107485E-002   3.0101154827677349E-003   1.4505957247617734E-003   2.1499999999999998E-002   8.2433160429373970E-004   0.0000000000000000        3.4228668137440605E-006
 abs          12           6   4.1283656184056529E-002   2.4042780354884817E-003   1.1505641441719927E-003   4.0700000000000000E-002   5.8089666352451790E-004   0.0000000000000000        2.7595205320107153E-006
 abs          12           7   5.5411598377345578E-002   1.9995019422600017E-003   9.5053830550762659E-004   5.5000000000000000E-002   4.0935096014306667E-004   0.0000000000000000        2.2474172025125733E-006
 abs          12           8   8.5190300888635592E-002   1.6957872030822952E-003   8.0051820876867526E-004   8.4900000000000003E-002   2.8846474612773896E-004   0.0000000000000000        1.8361425078378992E-006
 abs          12           9  0.19970475560641565        1.4920724639045882E-003   7.0049811202972385E-004  0.19950000000000001        2.0327767089994999E-004   0.0000000000000000        1.4779355157018926E-006
 abs          12          10  0.28514443872351092        1.2886230632395748E-003   6.0047945077212601E-004  0.28499999999999998        1.4324735358895504E-004   0.0000000000000000        1.1913699219930879E-006
 abs          12          11  0.35130191053614412        9.8384697001109469E-004   4.5045361210776001E-004  0.35120000000000001        1.0094470395786181E-004   0.0000000000000000        9.6583218620375039E-007
 abs          12          12  0.45597192523936714        7.8172426190954811E-004   3.5044212825693065E-004  0.45590000000000003        7.1134530599286717E-005   0.0000000000000000        7.9070876782614728E-007
 abs          12          13  0.64335076712229666        7.7933621529530810E-004   3.5042920892474759E-004  0.64329999999999998        5.0127656481048711E-005   0.0000000000000000        6.3946581559094456E-007
 abs          13           1   9.6509902223393795E-003   7.7360121323064805E-003   3.8007358256357780E-003   6.3000000000000000E-003   3.3428294944009914E-003   0.0000000000000000        8.1607279383888067E-006
 abs          13           2   7.4622393849157285E-003   5.9280114186413928E-003   2.9006925417748497E-003   5.1000000000000004E-003   2.3556521306648073E-003   0.0000000000000000        6.5872542509216831E-006
 abs          13           3   9.9652271329278563E-003   4.6133434435887332E-003   2.2506131880298151E-003   8.3000000000000001E-003   1.6600000000000000E-003   0.0000000000000000        5.2271329278568831E-006
 abs          13           4   1.3074049276221113E-002   3.7160103481437626E-003   1.8006276159834578E-003   1.1900000000000001E-002   1.1697822289330642E-003   0.0000000000000000        4.2670472880464356E-006
 abs          13           5   2.2327771911169726E-002   3.0106765390337043E-003   1.4505987600761723E-003   2.1499999999999998E-002   8.2433160429373970E-004   0.0000000000000000        3.4403068759874384E-006
 abs          13           6   4.1283670244261744E-002   2.4048093490126403E-003   1.1505670185781585E-003   4.0700000000000000E-002   5.8089666352451790E-004   0.0000000000000000        2.7735807372301828E-006
 abs          13           7   5.5411609828301178E-002   2.0000089208135883E-003   9.5054104826160148E-004   5.5000000000000000E-002   4.0935096014306667E-004   0.0000000000000000        2.2588681581095815E-006
 abs          13           8   8.5190310244079831E-002   1.6962752544365477E-003   8.0052084912650174E-004   8.4900000000000003E-002   2.8846474612773896E-004   0.0000000000000000        1.8454979520800833E-006
 abs          13           9  0.19970476313673710        1.4925415880595071E-003   7.0050064999140191E-004  0.19950000000000001        2.0327767089994999E-004   0.0000000000000000        1.4854658371511652E-006
 abs          13          10  0.28514444479373413        1.2890746121379693E-003   6.0048189365166638E-004  0.28499999999999998        1.4324735358895504E-004   0.0000000000000000        1.1974401452080309E-006
 abs          13          11  0.35130191545721595        9.8427418393891709E-004   4.5045592333510954E-004  0.35120000000000001        1.0094470395786181E-004   0.0000000000000000        9.7075325803056385E-007
 abs          13          12  0.45597192926815666        7.8214066029489381E-004   3.5044438097219535E-004  0.45590000000000003        7.1134530599286717E-005   0.0000000000000000        7.9473755739864839E-007
 abs          13          13  0.64335077038047883        7.7974044619536778E-004   3.5043139581391691E-004  0.64329999999999998        5.0127656481048711E-005   0.0000000000000000        6.4272399776199425E-007
 abs          14           1   9.6509926941535130E-003   7.7360533292086947E-003   3.8007360485110189E-003   6.3000000000000000E-003   3.3428294944009914E-003   0.0000000000000000        8.1631997525217011E-006
 abs          14           2   7.4622413801382478E-003   5.9280501921964183E-003   2.9006927515397825E-003   5.1000000000000004E-003   2.3556521306648073E-003   0.0000000000000000        6.5892494734407194E-006
 abs          14           3   9.9652287161813534E-003   4.6133777743405787E-003   2.2506133737591823E-003   8.3000000000000001E-003   1.6600000000000000E-003   0.0000000000000000        5.2287161813537698E-006
 abs          14           4   1.3074050568672946E-002   3.7160454866780046E-003   1.8006278060829280E-003   1.1900000000000001E-002   1.1697822289330642E-003   0.0000000000000000        4.2683397398806285E-006
 abs          14           5   2.2327772953209018E-002   3.0107100620031537E-003   1.4505989414354370E-003   2.1499999999999998E-002   8.2433160429373970E-004   0.0000000000000000        3.4413489152787565E-006
 abs          14           6   4.1283671084355440E-002   2.4048410948608180E-003   1.1505671903231970E-003   4.0700000000000000E-002   5.8089666352451790E-004   0.0000000000000000        2.7744208309224083E-006
 abs          14           7   5.5411610512492868E-002   2.0000392126534520E-003   9.5054121214045522E-004   5.5000000000000000E-002   4.0935096014306667E-004   0.0000000000000000        2.2595523497993079E-006
 abs          14           8   8.5190310803065245E-002   1.6963044153810568E-003   8.0052100688721151E-004   8.4900000000000003E-002   2.8846474612773896E-004   0.0000000000000000        1.8460569374983717E-006
 abs          14           9  0.19970476358667191        1.4925696181086611E-003   7.0050080163396782E-004  0.19950000000000001        2.0327767089994999E-004   0.0000000000000000        1.4859157719459437E-006
 abs          14          10  0.28514444515642845        1.2891015920700080E-003   6.0048203961309866E-004  0.28499999999999998        1.4324735358895504E-004   0.0000000000000000        1.1978028395040014E-006
 abs          14          11  0.35130191575124869        9.8429970986264230E-004   4.5045606143035691E-004  0.35120000000000001        1.0094470395786181E-004   0.0000000000000000        9.7104729082284287E-007
 abs          14          12  0.45597192950887583        7.8216553999270206E-004   3.5044451557136050E-004  0.45590000000000003        7.1134530599286717E-005   0.0000000000000000        7.9497827655276691E-007
 abs          14          13  0.64335077057515433        7.7976459888901917E-004   3.5043152647998960E-004  0.64329999999999998        5.0127656481048711E-005   0.0000000000000000        6.4291867331951956E-007
 abs          15           1   9.6509951515563845E-003   7.7360942859232354E-003   3.8007362700868447E-003   6.3000000000000000E-003   3.3428294944009914E-003   0.0000000000000000        8.1656571553941415E-006
 abs          15           2   7.4622433637281486E-003   5.9280887396924564E-003   2.9006929600817362E-003   5.1000000000000004E-003   2.3556521306648073E-003   0.0000000000000000        6.5912330633410221E-006
 abs          15           3   9.9652302902041093E-003   4.6134119049360293E-003   2.2506135584057039E-003   8.3000000000000001E-003   1.6600000000000000E-003   0.0000000000000000        5.2302902041086660E-006
 abs          15           4   1.3074051853589480E-002   3.7160804203462891E-003   1.8006279950740734E-003   1.1900000000000001E-002   1.1697822289330642E-003   0.0000000000000000        4.2696246564152378E-006
 abs          15           5   2.2327773989172975E-002   3.0107433895257699E-003   1.4505991217373343E-003   2.1499999999999998E-002   8.2433160429373970E-004   0.0000000000000000        3.4423848792347854E-006
 abs          15           6   4.1283671919551186E-002   2.4048726556231991E-003   1.1505673610669215E-003   4.0700000000000000E-002   5.8089666352451790E-004   0.0000000000000000        2.7752560266699042E-006
 abs          15           7   5.5411611192695553E-002   2.0000693278847321E-003   9.5054137506385644E-004   5.5000000000000000E-002   4.0935096014306667E-004   0.0000000000000000        2.2602325524898166E-006
 abs          15           8   8.5190311358791654E-002   1.6963334063103690E-003   8.0052116372813912E-004   8.4900000000000003E-002   2.8846474612773896E-004   0.0000000000000000        1.8466126638995904E-006
 abs          15           9  0.19970476403398346        1.4925974847360055E-003   7.0050095239242182E-004  0.19950000000000001        2.0327767089994999E-004   0.0000000000000000        1.4863630835145544E-006
 abs          15          10  0.28514444551700813        1.2891284147026679E-003   6.0048218472354142E-004  0.28499999999999998        1.4324735358895504E-004   0.0000000000000000        1.1981634192065261E-006
 abs          15          11  0.35130191604356725        9.8432508696420090E-004   4.5045619872047634E-004  0.35120000000000001        1.0094470395786181E-004   0.0000000000000000        9.7133960933446655E-007
 abs          15          12  0.45597192974819156        7.8219027463599330E-004   3.5044464938578071E-004  0.45590000000000003        7.1134530599286717E-005   0.0000000000000000        7.9521759225733792E-007
 abs          15          13  0.64335077076869496        7.7978861076675977E-004   3.5043165638424818E-004  0.64329999999999998        5.0127656481048711E-005   0.0000000000000000        6.4311221387254513E-007
 abs          16           1   9.6509988393369342E-003   7.7361557489323734E-003   3.8007366026017240E-003   6.3000000000000000E-003   3.3428294944009914E-003   0.0000000000000000        8.1693449359423876E-006
 abs          16           2   7.4622463404660421E-003   5.9281465872304687E-003   2.9006932730369166E-003   5.1000000000000004E-003   2.3556521306648073E-003   0.0000000000000000        6.5942098012345407E-006
 abs          16           3   9.9652326523119103E-003   4.6134631241103105E-003   2.2506138355014365E-003   8.3000000000000001E-003   1.6600000000000000E-003   0.0000000000000000        5.2326523119108105E-006
 abs          16           4   1.3074053781840747E-002   3.7161328446776122E-003   1.8006282786897057E-003   1.1900000000000001E-002   1.1697822289330642E-003   0.0000000000000000        4.2715529076822946E-006
 abs          16           5   2.2327775543825559E-002   3.0107934035430092E-003   1.4505993923131675E-003   2.1499999999999998E-002   8.2433160429373970E-004   0.0000000000000000        3.4439395318188497E-006
 abs          16           6   4.1283673172914509E-002   2.4049200182949463E-003   1.1505676172989757E-003   4.0700000000000000E-002   5.8089666352451790E-004   0.0000000000000000        2.7765093899934914E-006
 abs          16           7   5.5411612213463572E-002   2.0001145212738040E-003   9.5054161956009122E-004   5.5000000000000000E-002   4.0935096014306667E-004   0.0000000000000000        2.2612533205043144E-006
 abs          16           8   8.5190312192760326E-002   1.6963769124795818E-003   8.0052139909651463E-004   8.4900000000000003E-002   2.8846474612773896E-004   0.0000000000000000        1.8474466325725924E-006
 abs          16           9  0.19970476470525594        1.4926393036853597E-003   7.0050117863293784E-004  0.19950000000000001        2.0327767089994999E-004   0.0000000000000000        1.4870343559868985E-006
 abs          16          10  0.28514444605812367        1.2891686669478679E-003   6.0048240248818791E-004  0.28499999999999998        1.4324735358895504E-004   0.0000000000000000        1.1987045347183439E-006
 abs          16          11  0.35130191648224440        9.8436316992672529E-004   4.5045640474930358E-004  0.35120000000000001        1.0094470395786181E-004   0.0000000000000000        9.7177828649772181E-007
 abs          16          12  0.45597193010732834        7.8222739347288419E-004   3.5044485019868830E-004  0.45590000000000003        7.1134530599286717E-005   0.0000000000000000        7.9557672905582723E-007
 abs          16          13  0.64335077105913774        7.7982464496231287E-004   3.5043185132924609E-004  0.64329999999999998        5.0127656481048711E-005   0.0000000000000000        6.4340265671964550E-007
 abs          17           1   9.6510082090812462E-003   7.7363119113375931E-003   3.8007374474403363E-003   6.3000000000000000E-003   3.3428294944009914E-003   0.0000000000000000        8.1787146802555804E-006
 abs          17           2   7.4622539036256668E-003   5.9282935636118519E-003   2.9006940681791400E-003   5.1000000000000004E-003   2.3556521306648073E-003   0.0000000000000000        6.6017729608598962E-006
 abs          17           3   9.9652386538474844E-003   4.6135932594479935E-003   2.2506145395336133E-003   8.3000000000000001E-003   1.6600000000000000E-003   0.0000000000000000        5.2386538474839670E-006
 abs          17           4   1.3074058681053461E-002   3.7162660420232410E-003   1.8006289992873457E-003   1.1900000000000001E-002   1.1697822289330642E-003   0.0000000000000000        4.2764521203950752E-006
 abs          17           5   2.2327779493815807E-002   3.0109204768727468E-003   1.4506000797798815E-003   2.1499999999999998E-002   8.2433160429373970E-004   0.0000000000000000        3.4478895220685292E-006
 abs          17           6   4.1283676357402772E-002   2.4050403552072041E-003   1.1505682683216709E-003   4.0700000000000000E-002   5.8089666352451790E-004   0.0000000000000000        2.7796938782567986E-006
 abs          17           7   5.5411614806984297E-002   2.0002293465717596E-003   9.5054224076495319E-004   5.5000000000000000E-002   4.0935096014306667E-004   0.0000000000000000        2.2638468412341430E-006
 abs          17           8   8.5190314311669818E-002   1.6964874509664139E-003   8.0052199710972834E-004   8.4900000000000003E-002   2.8846474612773896E-004   0.0000000000000000        1.8495655420708700E-006
 abs          17           9  0.19970476641079438        1.4927455553610681E-003   7.0050175345450340E-004  0.19950000000000001        2.0327767089994999E-004   0.0000000000000000        1.4887398944125352E-006
 abs          17          10  0.28514444743296519        1.2892709380132471E-003   6.0048295577465164E-004  0.28499999999999998        1.4324735358895504E-004   0.0000000000000000        1.2000793762858680E-006
 abs          17          11  0.35130191759681528        9.8445992937780261E-004   4.5045692821793390E-004  0.35120000000000001        1.0094470395786181E-004   0.0000000000000000        9.7289285738987938E-007
 abs          17          12  0.45597193101980671        7.8232170331760521E-004   3.5044536041494822E-004  0.45590000000000003        7.1134530599286717E-005   0.0000000000000000        7.9648920742358258E-007
 abs          17          13  0.64335077179708167        7.7991619899988294E-004   3.5043234663658935E-004  0.64329999999999998        5.0127656481048711E-005   0.0000000000000000        6.4414060063450815E-007
 abs          18           1   9.6510175788441996E-003   7.7364680740534672E-003   3.8007382922806291E-003   6.3000000000000000E-003   3.3428294944009914E-003   0.0000000000000000        8.1880844432080161E-006
 abs          18           2   7.4622614668003375E-003   5.9284405402856158E-003   2.9006948633229449E-003   5.1000000000000004E-003   2.3556521306648073E-003   0.0000000000000000        6.6093361355306533E-006
 abs          18           3   9.9652446553949968E-003   4.6137233950445554E-003   2.2506152435671908E-003   8.3000000000000001E-003   1.6600000000000000E-003   0.0000000000000000        5.2446553949959842E-006
 abs          18           4   1.3074063580275920E-002   3.7163992396338393E-003   1.8006297198864191E-003   1.1900000000000001E-002   1.1697822289330642E-003   0.0000000000000000        4.2813513428538652E-006
 abs          18           5   2.2327783443813917E-002   3.0110475504552718E-003   1.4506007672479629E-003   2.1499999999999998E-002   8.2433160429373970E-004   0.0000000000000000        3.4518395201759287E-006
 abs          18           6   4.1283679541897371E-002   2.4051606923588481E-003   1.1505689193456613E-003   4.0700000000000000E-002   5.8089666352451790E-004   0.0000000000000000        2.7828783728550124E-006
 abs          18           7   5.5411617400510191E-002   2.0003441720981376E-003   9.5054286197105093E-004   5.5000000000000000E-002   4.0935096014306667E-004   0.0000000000000000        2.2664403671232649E-006
 abs          18           8   8.5190316430583529E-002   1.6965979896731403E-003   8.0052259512413174E-004   8.4900000000000003E-002   2.8846474612773896E-004   0.0000000000000000        1.8516844557842966E-006
 abs          18           9  0.19970476811633620        1.4928518072481432E-003   7.0050232827721247E-004  0.19950000000000001        2.0327767089994999E-004   0.0000000000000000        1.4904454362310016E-006
 abs          18          10  0.28514444880780954        1.2893732092820742E-003   6.0048350906221595E-004  0.28499999999999998        1.4324735358895504E-004   0.0000000000000000        1.2014542205883660E-006
 abs          18          11  0.35130191871138838        9.8455668902136377E-004   4.5045745168760559E-004  0.35120000000000001        1.0094470395786181E-004   0.0000000000000000        9.7400743049925431E-007
 abs          18          12  0.45597193193228691        7.8241601334993690E-004   3.5044587063222317E-004  0.45590000000000003        7.1134530599286717E-005   0.0000000000000000        7.9740168760653230E-007
 abs          18          13  0.64335077253502704        7.8000775321958164E-004   3.5043284194491794E-004  0.64329999999999998        5.0127656481048711E-005   0.0000000000000000        6.4487854601736339E-007
 abs          19           1   9.6510269492835182E-003   7.7366242480421069E-003   3.8007391371819078E-003   6.3000000000000000E-003   3.3428294944009914E-003   0.0000000000000000        8.1974548825264059E-006
 abs          19           2   7.4622690305209639E-003   5.9285875275690413E-003   2.9006956585241484E-003   5.1000000000000004E-003   2.3556521306648073E-003   0.0000000000000000        6.6168998561569345E-006
 abs          19           3   9.9652506573757356E-003   4.6138535400350889E-003   2.2506159476515897E-003   8.3000000000000001E-003   1.6600000000000000E-003   0.0000000000000000        5.2506573757358680E-006
 abs          19           4   1.3074068479852034E-002   3.7165324468594438E-003   1.8006304405375096E-003   1.1900000000000001E-002   1.1697822289330642E-003   0.0000000000000000        4.2862509189680553E-006
 abs          19           5   2.2327787394097156E-002   3.0111746332107336E-003   1.4506014547656699E-003   2.1499999999999998E-002   8.2433160429373970E-004   0.0000000000000000        3.4557898034179946E-006
 abs          19           6   4.1283682726621848E-002   2.4052810381971529E-003   1.1505695704166466E-003   4.0700000000000000E-002   5.8089666352451790E-004   0.0000000000000000        2.7860630973292359E-006
 abs          19           7   5.5411619994223296E-002   2.0004590059133137E-003   9.5054348322199105E-004   5.5000000000000000E-002   4.0935096014306667E-004   0.0000000000000000        2.2690340802287143E-006
 abs          19           8   8.5190318549650201E-002   1.6967085363592169E-003   8.0052319318170341E-004   8.4900000000000003E-002   2.8846474612773896E-004   0.0000000000000000        1.8538035224536840E-006
 abs          19           9  0.19970476982200114        1.4929580668051198E-003   7.0050290314141569E-004  0.19950000000000001        2.0327767089994999E-004   0.0000000000000000        1.4921511011657542E-006
 abs          19          10  0.28514445018275308        1.2894754879334580E-003   6.0048406238972000E-004  0.28499999999999998        1.4324735358895504E-004   0.0000000000000000        1.2028291641354106E-006
 abs          19          11  0.35130191982604198        9.8465345564961899E-004   4.5045797519506443E-004  0.35120000000000001        1.0094470395786181E-004   0.0000000000000000        9.7512208406523239E-007
 abs          19          12  0.45597193284483295        7.8251033019013504E-004   3.5044638088632863E-004  0.45590000000000003        7.1134530599286717E-005   0.0000000000000000        7.9831423365780018E-007
 abs          19          13  0.64335077327302570        7.8009931404821552E-004   3.5043333728900086E-004  0.64329999999999998        5.0127656481048711E-005   0.0000000000000000        6.4561654466956334E-007
 abs          20           1   9.6510363210620710E-003   7.7367804443513218E-003   3.8007399822039406E-003   6.3000000000000000E-003   3.3428294944009914E-003   0.0000000000000000        8.2068266610793068E-006
 abs          20           2   7.4622765953226066E-003   5.9287345358600670E-003   2.9006964538390028E-003   5.1000000000000004E-003   2.3556521306648073E-003   0.0000000000000000        6.6244646577993093E-006
 abs          20           3   9.9652566602142865E-003   4.6139837036261013E-003   2.2506166518366172E-003   8.3000000000000001E-003   1.6600000000000000E-003   0.0000000000000000        5.2566602142860920E-006
 abs          20           4   1.3074073380128401E-002   3.7166656731231862E-003   1.8006311612915964E-003   1.1900000000000001E-002   1.1697822289330642E-003   0.0000000000000000        4.2911511953355858E-006
 abs          20           5   2.2327791344944978E-002   3.0113017341290163E-003   1.4506021423816378E-003   2.1499999999999998E-002   8.2433160429373970E-004   0.0000000000000000        3.4597406512393159E-006
 abs          20           6   4.1283685911801489E-002   2.4054014012354305E-003   1.1505702215806836E-003   4.0700000000000000E-002   5.8089666352451790E-004   0.0000000000000000        2.7892482769681304E-006
 abs          20           7   5.5411622588307098E-002   2.0005738561406777E-003   9.5054410456172104E-004   5.5000000000000000E-002   4.0935096014306667E-004   0.0000000000000000        2.2716281640307753E-006
 abs          20           8   8.5190320669019728E-002   1.6968190988447592E-003   8.0052379132475023E-004   8.4900000000000003E-002   2.8846474612773896E-004   0.0000000000000000        1.8559228919826406E-006
 abs          20           9  0.19970477152790983        1.4930643415488405E-003   7.0050347808777922E-004  0.19950000000000001        2.0327767089994999E-004   0.0000000000000000        1.4938570098762005E-006
 abs          20          10  0.28514445155789314        1.2895777812026302E-003   6.0048461579630618E-004  0.28499999999999998        1.4324735358895504E-004   0.0000000000000000        1.2042043041910487E-006
 abs          20          11  0.35130192094085483        9.8475023610787777E-004   4.5045849877734358E-004  0.35120000000000001        1.0094470395786181E-004   0.0000000000000000        9.7623689693884547E-007
 abs          20          12  0.45597193375750944        7.8260466051021001E-004   3.5044689121336024E-004  0.45590000000000003        7.1134530599286717E-005   0.0000000000000000        7.9922691013125263E-007
 abs          20          13  0.64335077401112983        7.8019088796283374E-004   3.5043383270387892E-004  0.64329999999999998        5.0127656481048711E-005   0.0000000000000000        6.4635464879742253E-007
 abs          21           1   9.6510670506427809E-003   7.7372926040298242E-003   3.8007427529878012E-003   6.3000000000000000E-003   3.3428294944009914E-003   0.0000000000000000        8.2375562417894344E-006
 abs          21           2   7.4623013999188005E-003   5.9292165684986572E-003   2.9006990616355774E-003   5.1000000000000004E-003   2.3556521306648073E-003   0.0000000000000000        6.6492692539934318E-006
 abs          21           3   9.9652763432136957E-003   4.6144105033581861E-003   2.2506189608231678E-003   8.3000000000000001E-003   1.6600000000000000E-003   0.0000000000000000        5.2763432136951935E-006
 abs          21           4   1.3074089447883021E-002   3.7171025152019084E-003   1.8006335246072422E-003   1.1900000000000001E-002   1.1697822289330642E-003   0.0000000000000000        4.3072189499552601E-006
 abs          21           5   2.2327804299572141E-002   3.0117184915144641E-003   1.4506043970390931E-003   2.1499999999999998E-002   8.2433160429373970E-004   0.0000000000000000        3.4726952784014286E-006
 abs          21           6   4.1283696355841989E-002   2.4057960654582759E-003   1.1505723567141293E-003   4.0700000000000000E-002   5.8089666352451790E-004   0.0000000000000000        2.7996923174709190E-006
 abs          21           7   5.5411631094174699E-002   2.0009504441395763E-003   9.5054614190279510E-004   5.5000000000000000E-002   4.0935096014306667E-004   0.0000000000000000        2.2801340316325658E-006
 abs          21           8   8.5190327618323611E-002   1.6971816275583656E-003   8.0052575260509083E-004   8.4900000000000003E-002   2.8846474612773896E-004   0.0000000000000000        1.8628721958556501E-006
 abs          21           9  0.19970477712149692        1.4934128109771547E-003   7.0050536330738637E-004  0.19950000000000001        2.0327767089994999E-004   0.0000000000000000        1.4994505969531748E-006
 abs          21          10  0.28514445606690675        1.2899131955803160E-003   6.0048643038808944E-004  0.28499999999999998        1.4324735358895504E-004   0.0000000000000000        1.2087133178311948E-006
 abs          21          11  0.35130192459626902        9.8506757426161640E-004   4.5046021557675531E-004  0.35120000000000001        1.0094470395786181E-004   0.0000000000000000        9.7989231111482155E-007
 abs          21          12  0.45597193675012870        7.8291396478663870E-004   3.5044856454949570E-004  0.45590000000000003        7.1134530599286717E-005   0.0000000000000000        8.0221952942916706E-007
 abs          21          13  0.64335077643133531        7.8049115412728886E-004   3.5043545714382861E-004  0.64329999999999998        5.0127656481048711E-005   0.0000000000000000        6.4877485433701099E-007
 abs          22           1   9.6511003864942404E-003   7.7378482015541504E-003   3.8007457587704080E-003   6.3000000000000000E-003   3.3428294944009914E-003   0.0000000000000000        8.2708920932490377E-006
 abs          22           2   7.4623283082694888E-003   5.9297394838156705E-003   2.9007018906074427E-003   5.1000000000000004E-003   2.3556521306648073E-003   0.0000000000000000        6.6761776046814120E-006
 abs          22           3   9.9652976955891398E-003   4.6148735012951254E-003   2.2506214656420062E-003   8.3000000000000001E-003   1.6600000000000000E-003   0.0000000000000000        5.2976955891399062E-006
 abs          22           4   1.3074106878393587E-002   3.7175764072079520E-003   1.8006360883629949E-003   1.1900000000000001E-002   1.1697822289330642E-003   0.0000000000000000        4.3246494605223732E-006
 abs          22           5   2.2327818352921285E-002   3.0121705953822988E-003   1.4506068429210180E-003   2.1499999999999998E-002   8.2433160429373970E-004   0.0000000000000000        3.4867486275461629E-006
 abs          22           6   4.1283707685673854E-002   2.4062242023740808E-003   1.1505746729348438E-003   4.0700000000000000E-002   5.8089666352451790E-004   0.0000000000000000        2.8110221493395421E-006
 abs          22           7   5.5411640321451232E-002   2.0013589717309929E-003   9.5054835203706471E-004   5.5000000000000000E-002   4.0935096014306667E-004   0.0000000000000000        2.2893613081640312E-006
 abs          22           8   8.5190335157019431E-002   1.6975749034530362E-003   8.0052788022768099E-004   8.4900000000000003E-002   2.8846474612773896E-004   0.0000000000000000        1.8704108916759261E-006
 abs          22           9  0.19970478318949339        1.4937908351750789E-003   7.0050740841829718E-004  0.19950000000000001        2.0327767089994999E-004   0.0000000000000000        1.5055185934443508E-006
 abs          22          10  0.28514446095834378        1.2902770574884045E-003   6.0048839888101225E-004  0.28499999999999998        1.4324735358895504E-004   0.0000000000000000        1.2136047548590909E-006
 abs          22          11  0.35130192856171016        9.8541182684531688E-004   4.5046207798323315E-004  0.35120000000000001        1.0094470395786181E-004   0.0000000000000000        9.8385775226883965E-007
 abs          22          12  0.45597193999656133        7.8324950211505566E-004   3.5045037980644246E-004  0.45590000000000003        7.1134530599286717E-005   0.0000000000000000        8.0546596202229183E-007
 abs          22          13  0.64335077905680604        7.8081688679351182E-004   3.5043721935755289E-004  0.64329999999999998        5.0127656481048711E-005   0.0000000000000000        6.5140032499118232E-007
 abs          23           1   9.6511337204043934E-003   7.7384037667233684E-003   3.8007487643779733E-003   6.3000000000000000E-003   3.3428294944009914E-003   0.0000000000000000        8.3042260034020929E-006
 abs          23           2   7.4623552150531744E-003   5.9302623686808172E-003   2.9007047194145631E-003   5.1000000000000004E-003   2.3556521306648073E-003   0.0000000000000000        6.7030843883670481E-006
 abs          23           3   9.9653190467211342E-003   4.6153364722694729E-003   2.2506239703149779E-003   8.3000000000000001E-003   1.6600000000000000E-003   0.0000000000000000        5.3190467211333668E-006
 abs          23           4   1.3074124307889092E-002   3.7180502716169903E-003   1.8006386519694479E-003   1.1900000000000001E-002   1.1697822289330642E-003   0.0000000000000000        4.3420789560272387E-006
 abs          23           5   2.2327832405452035E-002   3.0126226729219564E-003   1.4506092886605077E-003   2.1499999999999998E-002   8.2433160429373970E-004   0.0000000000000000        3.5008011582969610E-006
 abs          23           6   4.1283719014845933E-002   2.4066523143574190E-003   1.1505769890206737E-003   4.0700000000000000E-002   5.8089666352451790E-004   0.0000000000000000        2.8223513214177048E-006
 abs          23           7   5.5411649548190410E-002   2.0017674755318884E-003   9.5055056204262748E-004   5.5000000000000000E-002   4.0935096014306667E-004   0.0000000000000000        2.2985880473469191E-006
 abs          23           8   8.5190342695276228E-002   1.6979681564453647E-003   8.0053000772636949E-004   8.4900000000000003E-002   2.8846474612773896E-004   0.0000000000000000        1.8779491484817805E-006
 abs          23           9  0.19970478925713653        1.4941688373588406E-003   7.0050945341011131E-004  0.19950000000000001        2.0327767089994999E-004   0.0000000000000000        1.5115862365669822E-006
 abs          23          10  0.28514446584949599        1.2906408982070684E-003   6.0049036725930019E-004  0.28499999999999998        1.4324735358895504E-004   0.0000000000000000        1.2184959070351438E-006
 abs          23          11  0.35130193252692038        9.8575605938153784E-004   4.5046394028125413E-004  0.35120000000000001        1.0094470395786181E-004   0.0000000000000000        9.8782296249619652E-007
 abs          23          12  0.45597194324280482        7.8358501990352430E-004   3.5045219495767805E-004  0.45590000000000003        7.1134530599286717E-005   0.0000000000000000        8.0871220556007301E-007
 abs          23          13  0.64335078168212378        7.8114260049075897E-004   3.5043898146865500E-004  0.64329999999999998        5.0127656481048711E-005   0.0000000000000000        6.5402564275160268E-007
 abs          24           1   9.6511670561305954E-003   7.7389593621600633E-003   3.8007517701492861E-003   6.3000000000000000E-003   3.3428294944009914E-003   0.0000000000000000        8.3375617296037837E-006
 abs          24           2   7.4623821233027552E-003   5.9307852820330003E-003   2.9007075483757985E-003   5.1000000000000004E-003   2.3556521306648073E-003   0.0000000000000000        6.7299926379481520E-006
 abs          24           3   9.9653403990163474E-003   4.6157994684667188E-003   2.2506264751244046E-003   8.3000000000000001E-003   1.6600000000000000E-003   0.0000000000000000        5.3403990163475219E-006
 abs          24           4   1.3074141738334166E-002   3.7185241618424066E-003   1.8006412157155673E-003   1.1900000000000001E-002   1.1697822289330642E-003   0.0000000000000000        4.3595094011000177E-006
 abs          24           5   2.2327846458748378E-002   3.0130747750910314E-003   1.4506117345332425E-003   2.1499999999999998E-002   8.2433160429373970E-004   0.0000000000000000        3.5148544546368893E-006
 abs          24           6   4.1283730344635235E-002   2.4070804496645190E-003   1.1505793052326849E-003   4.0700000000000000E-002   5.8089666352451790E-004   0.0000000000000000        2.8336811107150114E-006
 abs          24           7   5.5411658775432270E-002   2.0021760015882816E-003   9.5055277216859265E-004   5.5000000000000000E-002   4.0935096014306667E-004   0.0000000000000000        2.3078152892073219E-006
 abs          24           8   8.5190350233943724E-002   1.6983614308623191E-003   8.0053213534096517E-004   8.4900000000000003E-002   2.8846474612773896E-004   0.0000000000000000        1.8854878159757578E-006
 abs          24           9  0.19970479532511021        1.4945468601363567E-003   7.0051149851333772E-004  0.19950000000000001        2.0327767089994999E-004   0.0000000000000000        1.5176542102579436E-006
 abs          24          10  0.28514447074091459        1.2910047587479628E-003   6.0049233574482647E-004  0.28499999999999998        1.4324735358895504E-004   0.0000000000000000        1.2233873256836925E-006
 abs          24          11  0.35130193649234664        9.8610031067172528E-004   4.5046580268073405E-004  0.35120000000000001        1.0094470395786181E-004   0.0000000000000000        9.9178838875025392E-007
 abs          24          12  0.45597194648922523        7.8392055597117536E-004   3.5045401020780405E-004  0.45590000000000003        7.1134530599286717E-005   0.0000000000000000        8.1195862595487820E-007
 abs          24          13  0.64335078430758452        7.8146833193305657E-004   3.5044074367575784E-004  0.64329999999999998        5.0127656481048711E-005   0.0000000000000000        6.5665110354069011E-007
 abs          25           1   9.6511003980318446E-003   7.7378483938475729E-003   3.8007457598107156E-003   6.3000000000000000E-003   3.3428294944009914E-003   0.0000000000000000        8.2709036308543629E-006
 abs          25           2   7.4623283175825226E-003   5.9297396647977150E-003   2.9007018915865553E-003   5.1000000000000004E-003   2.3556521306648073E-003   0.0000000000000000        6.6761869177157763E-006
 abs          25           3   9.9652977029792405E-003   4.6148736615396436E-003   2.2506214665089291E-003   8.3000000000000001E-003   1.6600000000000000E-003   0.0000000000000000        5.2977029792400500E-006
 abs          25           4   1.3074106884426322E-002   3.7175765712229294E-003   1.8006360892503159E-003   1.1900000000000001E-002   1.1697822289330642E-003   0.0000000000000000        4.3246554932571834E-006
 abs          25           5   2.2327818357785179E-002   3.0121707518563582E-003   1.4506068437675427E-003   2.1499999999999998E-002   8.2433160429373970E-004   0.0000000000000000        3.4867534914386044E-006
 abs          25           6   4.1283707689595134E-002   2.4062243505531297E-003   1.1505746737364925E-003   4.0700000000000000E-002   5.8089666352451790E-004   0.0000000000000000        2.8110260706171691E-006
 abs          25           7   5.5411640324644809E-002   2.0013591131232151E-003   9.5054835280199655E-004   5.5000000000000000E-002   4.0935096014306667E-004   0.0000000000000000        2.2893645017430215E-006
 abs          25           8   8.5190335159628580E-002   1.6975750395666154E-003   8.0052788096405538E-004   8.4900000000000003E-002   2.8846474612773896E-004   0.0000000000000000        1.8704135008337320E-006
 abs          25           9  0.19970478319159354        1.4937909660100151E-003   7.0050740912611412E-004  0.19950000000000001        2.0327767089994999E-004   0.0000000000000000        1.5055206935901569E-006
 abs          25          10  0.28514446096003671        1.2902771834217436E-003   6.0048839956231156E-004  0.28499999999999998        1.4324735358895504E-004   0.0000000000000000        1.2136064477952971E-006
 abs          25          11  0.35130192856308262        9.8541194599182941E-004   4.5046207862781579E-004  0.35120000000000001        1.0094470395786181E-004   0.0000000000000000        9.8385912471600920E-007
 abs          25          12  0.45597193999768493        7.8324961824520077E-004   3.5045038043470656E-004  0.45590000000000003        7.1134530599286717E-005   0.0000000000000000        8.0546708561915037E-007
 abs          25          13  0.64335077905771465        7.8081699953024355E-004   3.5043721996745863E-004  0.64329999999999998        5.0127656481048711E-005   0.0000000000000000        6.5140123367186319E-007
 abs          26           1   9.6509962365975439E-003   7.7361123699425400E-003   3.8007363679213890E-003   6.3000000000000000E-003   3.3428294944009914E-003   0.0000000000000000        8.1667421965524038E-006
 abs          26           2   7.4622442395620246E-003   5.9281057599459199E-003   2.9006930521613072E-003   5.1000000000000004E-003   2.3556521306648073E-003   0.0000000000000000        6.5921088972171347E-006
 abs          26           3   9.9652309851977917E-003   4.6134269749521168E-003   2.2506136399344906E-003   8.3000000000000001E-003   1.6600000000000000E-003   0.0000000000000000        5.2309851977917352E-006
 abs          26           4   1.3074052420931263E-002   3.7160958449509898E-003   1.8006280785211849E-003   1.1900000000000001E-002   1.1697822289330642E-003   0.0000000000000000        4.2701919981973352E-006
 abs          26           5   2.2327774446592286E-002   3.0107581049532432E-003   1.4505992013477968E-003   2.1499999999999998E-002   8.2433160429373970E-004   0.0000000000000000        3.4428422985466016E-006
 abs          26           6   4.1283672288323345E-002   2.4048865909557220E-003   1.1505674364570705E-003   4.0700000000000000E-002   5.8089666352451790E-004   0.0000000000000000        2.7756247988282679E-006
 abs          26           7   5.5411611493032108E-002   2.0000826249577499E-003   9.5054144700102143E-004   5.5000000000000000E-002   4.0935096014306667E-004   0.0000000000000000        2.2605328890457143E-006
 abs          26           8   8.5190311604166971E-002   1.6963462069593275E-003   8.0052123297965001E-004   8.4900000000000003E-002   2.8846474612773896E-004   0.0000000000000000        1.8468580392203474E-006
 abs          26           9  0.19970476423148933        1.4926097889609046E-003   7.0050101895827849E-004  0.19950000000000001        2.0327767089994999E-004   0.0000000000000000        1.4865605893724471E-006
 abs          26          10  0.28514444567621844        1.2891402579623692E-003   6.0048224879557632E-004  0.28499999999999998        1.4324735358895504E-004   0.0000000000000000        1.1983226294941271E-006
 abs          26          11  0.35130191617263751        9.8433629196439726E-004   4.5045625933952740E-004  0.35120000000000001        1.0094470395786181E-004   0.0000000000000000        9.7146867958989357E-007
 abs          26          12  0.45597192985385893        7.8220119596529862E-004   3.5044470847017228E-004  0.45590000000000003        7.1134530599286717E-005   0.0000000000000000        7.9532325966425353E-007
 abs          26          13  0.64335077085415071        7.7979921296631263E-004   3.5043171374214775E-004  0.64329999999999998        5.0127656481048711E-005   0.0000000000000000        6.4319766972847359E-007
 abs          27           1   9.6503556839253150E-003   7.7254364920720780E-003   3.8006786114221100E-003   6.3000000000000000E-003   3.3428294944009914E-003   0.0000000000000000        7.5261895243246708E-006
 abs          27           2   7.4617271921435923E-003   5.9180578748913668E-003   2.9006386931031622E-003   5.1000000000000004E-003   2.3556521306648073E-003   0.0000000000000000        6.0750614787849462E-006
 abs          27           3   9.9648206965580639E-003   4.6045304100600648E-003   2.2505655095184248E-003   8.3000000000000001E-003   1.6600000000000000E-003   0.0000000000000000        4.8206965580641685E-006
 abs          27           4   1.3073717491429444E-002   3.7069899491203014E-003   1.8005788156247409E-003   1.1900000000000001E-002   1.1697822289330642E-003   0.0000000000000000        3.9352624963789131E-006
 abs          27           5   2.2327504409681447E-002   3.0020708709998277E-003   1.4505522034121089E-003   2.1499999999999998E-002   8.2433160429373970E-004   0.0000000000000000        3.1728053877054985E-006
 abs          27           6   4.1283454584147165E-002   2.3966598850673070E-003   1.1505229299782142E-003   4.0700000000000000E-002   5.8089666352451790E-004   0.0000000000000000        2.5579206226462935E-006
 abs          27           7   5.5411434189727084E-002   1.9922327147588806E-003   9.5049897898684551E-004   5.5000000000000000E-002   4.0935096014306667E-004   0.0000000000000000        2.0832295840205871E-006
 abs          27           8   8.5190166747157431E-002   1.6887893600745494E-003   8.0048035043800338E-004   8.4900000000000003E-002   2.8846474612773896E-004   0.0000000000000000        1.7020010296838798E-006
 abs          27           9  0.19970464763415652        1.4853460053902176E-003   7.0046172188916107E-004  0.19950000000000001        2.0327767089994999E-004   0.0000000000000000        1.3699632565519090E-006
 abs          27          10  0.28514435168662700        1.2821486046119097E-003   6.0044442395095041E-004  0.28499999999999998        1.4324735358895504E-004   0.0000000000000000        1.1043330380463324E-006
 abs          27          11  0.35130183997617581        9.7772143430348356E-004   4.5042047295958186E-004  0.35120000000000001        1.0094470395786181E-004   0.0000000000000000        8.9527221792620262E-007
 abs          27          12  0.45597186747323926        7.7575380305529404E-004   3.5040982807452913E-004  0.45590000000000003        7.1134530599286717E-005   0.0000000000000000        7.3294263995057244E-007
 abs          27          13  0.64335072040539454        7.7354021790108094E-004   3.5039785257884483E-004  0.64329999999999998        5.0127656481048711E-005   0.0000000000000000        5.9274891351707374E-007
 abs          28           1   9.6489533535348265E-003   7.7020643188972487E-003   3.8005521679652342E-003   6.3000000000000000E-003   3.3428294944009914E-003   0.0000000000000000        6.1238591338349109E-006
 abs          28           2   7.4605952457172820E-003   5.8960605354327041E-003   2.9005196874966909E-003   5.1000000000000004E-003   2.3556521306648073E-003   0.0000000000000000        4.9431150524745842E-006
 abs          28           3   9.9639224718635015E-003   4.5850535990810404E-003   2.2504601399710284E-003   8.3000000000000001E-003   1.6600000000000000E-003   0.0000000000000000        3.9224718635021002E-006
 abs          28           4   1.3072984246780823E-002   3.6870548602358885E-003   1.8004709667938761E-003   1.1900000000000001E-002   1.1697822289330642E-003   0.0000000000000000        3.2020178477568164E-006
 abs          28           5   2.2326913231183493E-002   2.9830523379261922E-003   1.4504493131481807E-003   2.1499999999999998E-002   8.2433160429373970E-004   0.0000000000000000        2.5816268897539330E-006
 abs          28           6   4.1282977975125562E-002   2.3786495633855266E-003   1.1504254941379158E-003   4.0700000000000000E-002   5.8089666352451790E-004   0.0000000000000000        2.0813116010419306E-006
 abs          28           7   5.5411046028341224E-002   1.9750472933068005E-003   9.5040600585678976E-004   5.5000000000000000E-002   4.0935096014306667E-004   0.0000000000000000        1.6950681981562646E-006
 abs          28           8   8.5189849618846902E-002   1.6722455276900132E-003   8.0039084830480303E-004   8.4900000000000003E-002   2.8846474612773896E-004   0.0000000000000000        1.3848727191548231E-006
 abs          28           9  0.19970439237336321        1.4694437620732259E-003   7.0037569075281610E-004  0.19950000000000001        2.0327767089994999E-004   0.0000000000000000        1.1147024632503415E-006
 abs          28          10  0.28514414591984744        1.2668421225719233E-003   6.0036161588311403E-004  0.28499999999999998        1.4324735358895504E-004   0.0000000000000000        8.9856625852675662E-007
 abs          28          11  0.35130167316301825        9.6323985249319709E-004   4.5034212760198817E-004  0.35120000000000001        1.0094470395786181E-004   0.0000000000000000        7.2845906036467567E-007
 abs          28          12  0.45597173090642346        7.6163884356931870E-004   3.5033346614370998E-004  0.45590000000000003        7.1134530599286717E-005   0.0000000000000000        5.9637582414470699E-007
 abs          28          13  0.64335060996041937        7.5983770852995549E-004   3.5032372200314703E-004  0.64329999999999998        5.0127656481048711E-005   0.0000000000000000        4.8230393831837037E-007
 abs          29           1   9.6472969511124263E-003   7.6744576118572515E-003   3.8004028156801476E-003   6.3000000000000000E-003   3.3428294944009914E-003   0.0000000000000000        4.4674567114350643E-006
 abs          29           2   7.4592582150037759E-003   5.8700777523362363E-003   2.9003791206401387E-003   5.1000000000000004E-003   2.3556521306648073E-003   0.0000000000000000        3.6060843389688259E-006
 abs          29           3   9.9628615082203963E-003   4.5620480098810421E-003   2.2503356797334562E-003   8.3000000000000001E-003   1.6600000000000000E-003   0.0000000000000000        2.8615082203963159E-006
 abs          29           4   1.3072118154010940E-002   3.6635079630547140E-003   1.8003435780801259E-003   1.1900000000000001E-002   1.1697822289330642E-003   0.0000000000000000        2.3359250778745435E-006
 abs          29           5   2.2326214943887777E-002   2.9605880567073707E-003   1.4503277813867868E-003   2.1499999999999998E-002   8.2433160429373970E-004   0.0000000000000000        1.8833395940363507E-006
 abs          29           6   4.1282415014825137E-002   2.3573761597252933E-003   1.1503104050241137E-003   4.0700000000000000E-002   5.8089666352451790E-004   0.0000000000000000        1.5183513006184534E-006
 abs          29           7   5.5410587540481164E-002   1.9547482440126847E-003   9.5029618800010864E-004   5.5000000000000000E-002   4.0935096014306667E-004   0.0000000000000000        1.2365803380998366E-006
 abs          29           8   8.5189475033723927E-002   1.6527043095695445E-003   8.0028513031477132E-004   8.4900000000000003E-002   2.8846474612773896E-004   0.0000000000000000        1.0102875961807401E-006
 abs          29           9  0.19970409086481769        1.4506603751264042E-003   7.0027407262943380E-004  0.19950000000000001        2.0327767089994999E-004   0.0000000000000000        8.1319391773507537E-007
 abs          29          10  0.28514390287256391        1.2487624360006310E-003   6.0026380477876335E-004  0.28499999999999998        1.4324735358895504E-004   0.0000000000000000        6.5551897497854383E-007
 abs          29          11  0.35130147612691309        9.4613452028802225E-004   4.5024958775475817E-004  0.35120000000000001        1.0094470395786181E-004   0.0000000000000000        5.3142295521645858E-007
 abs          29          12  0.45597156959664503        7.4496655774908499E-004   3.5024326907742253E-004  0.45590000000000003        7.1134530599286717E-005   0.0000000000000000        4.3506604575413370E-007
 abs          29          13  0.64335047950519586        7.4365259989278055E-004   3.5023616056541993E-004  0.64329999999999998        5.0127656481048711E-005   0.0000000000000000        3.5184871485485308E-007
 abs          30           1   9.6448164809205400E-003   7.6331164419924736E-003   3.8001791599511794E-003   6.3000000000000000E-003   3.3428294944009914E-003   0.0000000000000000        1.9869865195484120E-006
 abs          30           2   7.4572560054044423E-003   5.8311684159929158E-003   2.9001686211305214E-003   5.1000000000000004E-003   2.3556521306648073E-003   0.0000000000000000        1.6038747396354828E-006
 abs          30           3   9.9612727103197112E-003   4.5275970349937279E-003   2.2501492999593160E-003   8.3000000000000001E-003   1.6600000000000000E-003   0.0000000000000000        1.2727103197107476E-006
 abs          30           4   1.3070821176132829E-002   3.6282463769935804E-003   1.8001528128995352E-003   1.1900000000000001E-002   1.1697822289330642E-003   0.0000000000000000        1.0389471997638758E-006
 abs          30           5   2.2325169255473547E-002   2.9269476929938754E-003   1.4501457870190967E-003   2.1499999999999998E-002   8.2433160429373970E-004   0.0000000000000000        8.3765117980962477E-007
 abs          30           6   4.1281571979204366E-002   2.3255191405942002E-003   1.1501380585506146E-003   4.0700000000000000E-002   5.8089666352451790E-004   0.0000000000000000        6.7531567984651915E-007
 abs          30           7   5.5409900952816941E-002   1.9243503249944658E-003   9.5013173525822009E-004   5.5000000000000000E-002   4.0935096014306667E-004   0.0000000000000000        5.4999267387500168E-007
 abs          30           8   8.5188914090791643E-002   1.6234412461946725E-003   8.0012681714191323E-004   8.4900000000000003E-002   2.8846474612773896E-004   0.0000000000000000        4.4934466389787626E-007
 abs          30           9  0.19970363935439386        1.4225321673948790E-003   7.0012189902560629E-004  0.19950000000000001        2.0327767089994999E-004   0.0000000000000000        3.6168349391779917E-007
 abs          30          10  0.28514353890814687        1.2216880227950708E-003   6.0011733220332133E-004  0.28499999999999998        1.4324735358895504E-004   0.0000000000000000        2.9155455793373762E-007
 abs          30          11  0.35130118106444586        9.2051920719533648E-004   4.5011100891092674E-004  0.35120000000000001        1.0094470395786181E-004   0.0000000000000000        2.3636048794628170E-007
 abs          30          12  0.45597132803451523        7.1999973359545459E-004   3.5010819855875138E-004  0.45590000000000003        7.1134530599286717E-005   0.0000000000000000        1.9350391595602183E-007
 abs          30          13  0.64335028414790296        7.1941532579558739E-004   3.5010503691255415E-004  0.64329999999999998        5.0127656481048711E-005   0.0000000000000000        1.5649142196443377E-007
 abs          31           1   9.6448164793870497E-003   7.6331164164343233E-003   3.8001791598129098E-003   6.3000000000000000E-003   3.3428294944009914E-003   0.0000000000000000        1.9869849860594259E-006
 abs          31           2   7.4572560041666260E-003   5.8311683919381871E-003   2.9001686210003855E-003   5.1000000000000004E-003   2.3556521306648073E-003   0.0000000000000000        1.6038735018192095E-006
 abs          31           3   9.9612727093374761E-003   4.5275970136952693E-003   2.2501492998440913E-003   8.3000000000000001E-003   1.6600000000000000E-003   0.0000000000000000        1.2727093374759722E-006
 abs          31           4   1.3070821175331005E-002   3.6282463551939818E-003   1.8001528127815994E-003   1.1900000000000001E-002   1.1697822289330642E-003   0.0000000000000000        1.0389463979395692E-006
 abs          31           5   2.2325169254827078E-002   2.9269476721965576E-003   1.4501457869065832E-003   2.1499999999999998E-002   8.2433160429373970E-004   0.0000000000000000        8.3765053333877756E-007
 abs          31           6   4.1281571978683179E-002   2.3255191208993906E-003   1.1501380584440658E-003   4.0700000000000000E-002   5.8089666352451790E-004   0.0000000000000000        6.7531515866071984E-007
 abs          31           7   5.5409900952392475E-002   1.9243503062017085E-003   9.5013173515655120E-004   5.5000000000000000E-002   4.0935096014306667E-004   0.0000000000000000        5.4999224940925940E-007
 abs          31           8   8.5188914090444851E-002   1.6234412281035115E-003   8.0012681704404003E-004   8.4900000000000003E-002   2.8846474612773896E-004   0.0000000000000000        4.4934431710886365E-007
 abs          31           9  0.19970363935411475        1.4225321500053144E-003   7.0012189893152877E-004  0.19950000000000001        2.0327767089994999E-004   0.0000000000000000        3.6168321478271245E-007
 abs          31          10  0.28514353890792182        1.2216880060569883E-003   6.0011733211276822E-004  0.28499999999999998        1.4324735358895504E-004   0.0000000000000000        2.9155433292179158E-007
 abs          31          11  0.35130118106426345        9.2051919135930651E-004   4.5011100882525384E-004  0.35120000000000001        1.0094470395786181E-004   0.0000000000000000        2.3636030553125195E-007
 abs          31          12  0.45597132803436591        7.1999971816033668E-004   3.5010819847524743E-004  0.45590000000000003        7.1134530599286717E-005   0.0000000000000000        1.9350376661624472E-007
 abs          31          13  0.64335028414778217        7.1941531081149573E-004   3.5010503683149019E-004  0.64329999999999998        5.0127656481048711E-005   0.0000000000000000        1.5649130118964758E-007
 abs          32           1   9.6432926384387042E-003   7.6077190672952195E-003   3.8000417601540670E-003   6.3000000000000000E-003   3.3428294944009914E-003   0.0000000000000000        4.6314403771319400E-007
 abs          32           2   7.4560259756887128E-003   5.8072650045131475E-003   2.9000393036744160E-003   5.1000000000000004E-003   2.3556521306648073E-003   0.0000000000000000        3.7384502390574808E-007
 abs          32           3   9.9602966543509541E-003   4.5064325560793496E-003   2.2500348001283890E-003   8.3000000000000001E-003   1.6600000000000000E-003   0.0000000000000000        2.9665435095354909E-007
 abs          32           4   1.3070024395750170E-002   3.6065839103400403E-003   1.8000356189549396E-003   1.1900000000000001E-002   1.1697822289330642E-003   0.0000000000000000        2.4216681710493806E-007
 abs          32           5   2.2324526851290029E-002   2.9062812018186591E-003   1.4500339813018389E-003   2.1499999999999998E-002   8.2433160429373970E-004   0.0000000000000000        1.9524699629085630E-007
 abs          32           6   4.1281054071955633E-002   2.3059482224451399E-003   1.1500321798834281E-003   4.0700000000000000E-002   5.8089666352451790E-004   0.0000000000000000        1.5740843111820973E-007
 abs          32           7   5.5409479157201867E-002   1.9056757847758969E-003   9.5003070599563764E-004   5.5000000000000000E-002   4.0935096014306667E-004   0.0000000000000000        1.2819705880492659E-007
 abs          32           8   8.5188569483276147E-002   1.6054638888109301E-003   8.0002955963846714E-004   8.4900000000000003E-002   2.8846474612773896E-004   0.0000000000000000        1.0473714839788571E-007
 abs          32           9  0.19970336197522318        1.4052519928459634E-003   7.0002841328129666E-004  0.19950000000000001        2.0327767089994999E-004   0.0000000000000000        8.4304323204656559E-008
 abs          32          10  0.28514331531165199        1.2050552323070655E-003   6.0002734880678114E-004  0.28499999999999998        1.4324735358895504E-004   0.0000000000000000        6.7958063050073248E-008
 abs          32          11  0.35130099979690876        9.0478279463782247E-004   4.5002587491899061E-004  0.35120000000000001        1.0094470395786181E-004   0.0000000000000000        5.5092950891373401E-008
 abs          32          12  0.45597117963416900        7.0466171122927001E-004   3.5002521985775034E-004  0.45590000000000003        7.1134530599286717E-005   0.0000000000000000        4.5103569685794710E-008
 abs          32          13  0.64335016413285784        7.0452549239464850E-004   3.5002448291385506E-004  0.64329999999999998        5.0127656481048711E-005   0.0000000000000000        3.6476376826431295E-008
 abs          33           1   9.6430000543717385E-003   7.6028426661791130E-003   3.8000153788240289E-003   6.3000000000000000E-003   3.3428294944009914E-003   0.0000000000000000        1.7055997074677528E-007
 abs          33           2   7.4557898048895604E-003   5.8026754505215179E-003   2.9000144741873212E-003   5.1000000000000004E-003   2.3556521306648073E-003   0.0000000000000000        1.3767422475311598E-007
 abs          33           3   9.9601092475629614E-003   4.5023688884825936E-003   2.2500128156866905E-003   8.3000000000000001E-003   1.6600000000000000E-003   0.0000000000000000        1.0924756296198678E-007
 abs          33           4   1.3069871410617115E-002   3.6024246270351255E-003   1.8000131172322600E-003   1.1900000000000001E-002   1.1697822289330642E-003   0.0000000000000000        8.9181684050601460E-008
 abs          33           5   2.2324403507026504E-002   2.9023131499300624E-003   1.4500125141411215E-003   2.1499999999999998E-002   8.2433160429373970E-004   0.0000000000000000        7.1902732765797418E-008
 abs          33           6   4.1280954631619148E-002   2.3021905251144927E-003   1.1500118507408693E-003   4.0700000000000000E-002   5.8089666352451790E-004   0.0000000000000000        5.7968094632890945E-008
 abs          33           7   5.5409398170697059E-002   1.9020901957199359E-003   9.5001130795884490E-004   5.5000000000000000E-002   4.0935096014306667E-004   0.0000000000000000        4.7210553994287142E-008
 abs          33           8   8.5188503317206093E-002   1.6020121617463918E-003   8.0001088579504797E-004   8.4900000000000003E-002   2.8846474612773896E-004   0.0000000000000000        3.8571078351885127E-008
 abs          33           9  0.19970330871727371        1.4019341277728475E-003   7.0001046363125105E-004  0.19950000000000001        2.0327767089994999E-004   0.0000000000000000        3.1046373760115629E-008
 abs          33          10  0.28514327238019899        1.2018616676545562E-003   6.0001007162201105E-004  0.28499999999999998        1.4324735358895504E-004   0.0000000000000000        2.5026610086700034E-008
 abs          33          11  0.35130096499279101        9.0176133825999938E-004   4.5000952883998658E-004  0.35120000000000001        1.0094470395786181E-004   0.0000000000000000        2.0288833121511830E-008
 abs          33          12  0.45597115114068792        7.0171674741797410E-004   3.5000928760353124E-004  0.45590000000000003        7.1134530599286717E-005   0.0000000000000000        1.6610088654424517E-008
 abs          33          13  0.64335014108947219        7.0166658272069558E-004   3.5000901621251893E-004  0.64329999999999998        5.0127656481048711E-005   0.0000000000000000        1.3432991160121843E-008
 abs          34           1   9.6429022236985337E-003   7.6012121549590382E-003   3.8000065577583285E-003   6.3000000000000000E-003   3.3428294944009914E-003   0.0000000000000000        7.2729297542288500E-008
 abs          34           2   7.4557108369932151E-003   5.8011408517261529E-003   2.9000061720078382E-003   5.1000000000000004E-003   2.3556521306648073E-003   0.0000000000000000        5.8706328408317832E-008
 abs          34           3   9.9600465847788176E-003   4.5010101291325317E-003   2.2500054647986070E-003   8.3000000000000001E-003   1.6600000000000000E-003   0.0000000000000000        4.6584778817936424E-008
 abs          34           4   1.3069820257323938E-002   3.6010338968768267E-003   1.8000055933821036E-003   1.1900000000000001E-002   1.1697822289330642E-003   0.0000000000000000        3.8028390871784838E-008
 abs          34           5   2.2324362264683879E-002   2.9009863613882365E-003   1.4500053362151103E-003   2.1499999999999998E-002   8.2433160429373970E-004   0.0000000000000000        3.0660390140376524E-008
 abs          34           6   4.1280921381978586E-002   2.3009340723507883E-003   1.1500050533314178E-003   4.0700000000000000E-002   5.8089666352451790E-004   0.0000000000000000        2.4718454066660142E-008
 abs          34           7   5.5409371091422480E-002   1.9008912904110574E-003   9.5000482188112377E-004   5.5000000000000000E-002   4.0935096014306667E-004   0.0000000000000000        2.0131279417751101E-008
 abs          34           8   8.5188481193406801E-002   1.6008580155690447E-003   8.0000464186422854E-004   8.4900000000000003E-002   2.8846474612773896E-004   0.0000000000000000        1.6447279052046943E-008
 abs          34           9  0.19970329090953354        1.4008247407270317E-003   7.0000446184733322E-004  0.19950000000000001        2.0327767089994999E-004   0.0000000000000000        1.3238633572240096E-008
 abs          34          10  0.28514325802530610        1.2007938426594484E-003   6.0000429468878760E-004  0.28499999999999998        1.4324735358895504E-004   0.0000000000000000        1.0671717188394620E-008
 abs          34          11  0.35130095335541683        9.0075106071971776E-004   4.5000406323849365E-004  0.35120000000000001        1.0094470395786181E-004   0.0000000000000000        8.6514589233310493E-009
 abs          34          12  0.45597114161338709        7.0073204652428185E-004   3.5000396037169638E-004  0.45590000000000003        7.1134530599286717E-005   0.0000000000000000        7.0827877998699248E-009
 abs          34          13  0.64335013338450742        7.0071065555441642E-004   3.5000384464654942E-004  0.64329999999999998        5.0127656481048711E-005   0.0000000000000000        5.7280263750625909E-009
 abs          35           1   9.6428653839373876E-003   7.6005981589399325E-003   3.8000032360398649E-003   6.3000000000000000E-003   3.3428294944009914E-003   0.0000000000000000        3.5889536395941273E-008
 abs          35           2   7.4556811003232710E-003   5.8005629731199358E-003   2.9000030456845785E-003   5.1000000000000004E-003   2.3556521306648073E-003   0.0000000000000000        2.8969658463390501E-008
 abs          35           3   9.9600229880690647E-003   4.5004984657832769E-003   2.2500026966998875E-003   8.3000000000000001E-003   1.6600000000000000E-003   0.0000000000000000        2.2988069064066958E-008
 abs          35           4   1.3069800994703730E-002   3.6005101943899424E-003   1.8000027601516495E-003   1.1900000000000001E-002   1.1697822289330642E-003   0.0000000000000000        1.8765770664544457E-008
 abs          35           5   2.2324346734196338E-002   2.9004867371766113E-003   1.4500026332481253E-003   2.1499999999999998E-002   8.2433160429373970E-004   0.0000000000000000        1.5129902598288966E-008
 abs          35           6   4.1280908861275452E-002   2.3004609342419480E-003   1.1500024936542490E-003   4.0700000000000000E-002   5.8089666352451790E-004   0.0000000000000000        1.2197750931953896E-008
 abs          35           7   5.5409360894272910E-002   1.9004398227499503E-003   9.5000237944107722E-004   5.5000000000000000E-002   4.0935096014306667E-004   0.0000000000000000        9.9341298455432210E-009
 abs          35           8   8.5188472862323561E-002   1.6004234027006189E-003   8.0000229060861038E-004   8.4900000000000003E-002   2.8846474612773896E-004   0.0000000000000000        8.1161958124154773E-009
 abs          35           9  0.19970328420373387        1.4004069826512873E-003   7.0000220177614345E-004  0.19950000000000001        2.0327767089994999E-004   0.0000000000000000        6.5328339125945383E-009
 abs          35          10  0.28514325261973333        1.2003917354626223E-003   6.0000211928885275E-004  0.28499999999999998        1.4324735358895504E-004   0.0000000000000000        5.2661443927377880E-009
 abs          35          11  0.35130094897317071        9.0037062397062468E-004   4.5000200507568105E-004  0.35120000000000001        1.0094470395786181E-004   0.0000000000000000        4.2692128261838630E-009
 abs          35          12  0.45597113802572409        7.0036124108529250E-004   3.5000195431427144E-004  0.45590000000000003        7.1134530599286717E-005   0.0000000000000000        3.4951247862714042E-009
 abs          35          13  0.64335013048307521        7.0035068533929364E-004   3.5000189720768560E-004  0.64329999999999998        5.0127656481048711E-005   0.0000000000000000        2.8265942063470085E-009
 ed   5.1479113101959229        6.6247568130493164        8.0732395648956299        8.5075433254241943        8.5161354541778564        8.3519830703735352        8.4486072063446045        8.3182427883148193        7.8892357349395752        7.8253405094146729        7.3955733776092529        6.7436313629150391        3.3235081434249878     
 es   3.8728317022323608        4.4540216922760010        5.0482072830200195        4.9460418224334717        4.6630649566650391        4.3368896245956421        4.2126188278198242        4.0433905124664307        3.7322288751602173        3.6368581056594849        3.4224590063095093        3.0634193420410156        1.5072223544120789     
 PAR   39.639085781398620        52.474355331172575        62.078333347851675        63.810689669414238        60.038127943436557        52.963778180719743        50.527899288698251        42.905190142294011        21.043872245108744        12.921665724424717        8.5201257156270991        4.2728012102413784       0.70636706294829010     
 chl2c           1   3.7477407714772232E-002   3.7477407714772232E-002  0.60826437499999997        4.3840076055207794E-004   1.4236146308085714E-016
 chl           1   3.1713984512132374E-005   8.4621606578279631E-004   3.7477407714772232E-002
 chl2c           2   3.2640259920490348E-002   3.2640259920490348E-002  0.48302390000000001        2.4783817841439286E-004   1.7853311462344098E-006
 chl           2   2.7620712336045232E-005   8.4621606578279631E-004   3.2640259920490348E-002
 chl2c           3   3.7922212503796585E-002   3.7922212503796585E-002  0.75128689999999998        4.3840076055207794E-004   1.5351148954357172E-016
 chl           3   3.2090385470741914E-005   8.4621606578279631E-004   3.7922212503796585E-002
 chl2c           4   3.7976509103863923E-002   3.7976509103863923E-002  0.77318742499999993        4.3840076055207794E-004   2.2124709089494548E-006
 chl           4   3.2136332126036273E-005   8.4621606578279631E-004   3.7976509103863923E-002
 chl2c           5   2.5710500362372445E-002   2.5710500362372445E-002  0.48489679999999996        3.3573115304117151E-004   2.8210260400542438E-006
 chl           5   2.1756638465953971E-005   8.4621606578279631E-004   2.5710500362372445E-002
 chl2c           6   3.1261039902252048E-002   3.1261039902252048E-002  0.29222855000000003        2.4783817841439286E-004   1.0208324903691330E-016
 chl           6   2.6453594198362740E-005   8.4621606578279631E-004   3.1261039902252048E-002
 chl2c           7   4.3064391842467263E-002   4.3064391842467263E-002  0.22770740000000000        1.5488446586879400E-004   1.2983161679805277E-006
 chl           7   3.6441780240261396E-005   8.4621606578279631E-004   4.3064391842467263E-002
 chl2c           8   4.7969800906495587E-002   4.7969800906495587E-002  0.49578364999999996        1.5488446586879400E-004   7.3424097340445728E-017
 chl           8   4.0592816199478711E-005   8.4621606578279631E-004   4.7969800906495587E-002
 chl2c           9   2.4803669054600401E-002   2.4803669054600401E-002  0.28700202499999999        3.3573115304117151E-004   1.3645335305622434E-016
 chl           9   2.0989263244362444E-005   8.4621606578279631E-004   2.4803669054600401E-002
 chl2c          10   2.5387016219684602E-002   2.5387016219684602E-002  0.39094662499999999        3.3573115304117151E-004   3.4255779906203410E-006
 chl          10   2.1482900987385541E-005   8.4621606578279631E-004   2.5387016219684602E-002
 chl2c          11   2.1820572217820047E-002   2.1820572217820047E-002  0.49737575000000001        4.3840076055207794E-004   1.4135841544523700E-016
 chl          11   1.8464918775293068E-005   8.4621606578279631E-004   2.1820572217820047E-002
 chl2c          12   4.5290941298723353E-002   4.5290941298723353E-002  0.30768942500000002        1.5488446586879400E-004   7.2799465300615421E-017
 chl          12   3.8325922161405244E-005   8.4621606578279631E-004   4.5290941298723353E-002
 chl2c          13   3.7935816987997487E-002   3.7935816987997487E-002  0.75666275000000005        4.3840076055207794E-004   1.2768563150711206E-016
 chl          13   3.2101897803839400E-005   8.4621606578279631E-004   3.7935816987997487E-002
 chl2c          14   4.6856526101924839E-002   4.6856526101924839E-002  0.39804095000000000        1.5488446586879400E-004   8.0866746731238817E-017
 chl          14   3.9650745174219742E-005   8.4621606578279631E-004   4.6856526101924839E-002
 chl2c          15   2.0954299823745293E-002   2.0954299823745293E-002  0.25607262500000000        4.3840076055207794E-004   3.9272803918789392E-006
 chl          15   1.7731865158082883E-005   8.4621606578279631E-004   2.0954299823745293E-002
 chl2c          16   3.7823443882273475E-002   3.7823443882273475E-002  0.71433214999999994        4.3840076055207794E-004   1.5980276383848941E-016
 chl          16   3.2006805876413837E-005   8.4621606578279631E-004   3.7823443882273475E-002
 chl2c          17   3.7542254757581245E-002   3.7542254757581245E-002  0.62580860000000005        4.3840076055207794E-004   1.5972288137150825E-016
 chl          17   3.1768859121575867E-005   8.4621606578279631E-004   3.7542254757581245E-002
 chl2c          18   2.5694475239060960E-002   2.5694475239060960E-002  0.47925950000000000        3.3573115304117151E-004   1.4755862300674901E-016
 chl          18   2.1743077749151642E-005   8.4621606578279631E-004   2.5694475239060960E-002
 chl2c          19   3.7570220750293731E-002   3.7570220750293731E-002  0.63367130000000005        4.3840076055207794E-004   7.8256384485397836E-007
 chl          19   3.1792524393904740E-005   8.4621606578279631E-004   3.7570220750293731E-002
 chl2c          20   3.7020645196759419E-002   3.7020645196759419E-002  0.50678202500000002        4.3840076055207794E-004   1.4058498647128828E-016
 chl          20   3.1327464731142532E-005   8.4621606578279631E-004   3.7020645196759419E-002
 chl2c          21   3.7838475073783531E-002   3.7838475073783531E-002  0.71973185000000006        4.3840076055207794E-004   1.5190031314345735E-008
 chl          21   3.2019525512157505E-005   8.4621606578279631E-004   3.7838475073783531E-002
 chl2c          22   3.7613353106285476E-002   3.7613353106285476E-002  0.64616892500000001        4.3840076055207794E-004   3.4840641533885451E-006
 chl          22   3.1829023686500017E-005   8.4621606578279631E-004   3.7613353106285476E-002
 chl2c          23   3.2286562315070731E-002   3.2286562315070731E-002  0.41564179999999995        2.4783817841439286E-004   9.6258416062162813E-017
 chl          23   2.7321407739910247E-005   8.4621606578279631E-004   3.2286562315070731E-002
 chl2c          24   3.7348402796863071E-002   3.7348402796863071E-002  0.57597492500000003        4.3840076055207794E-004   1.1415269708221024E-016
 chl          24   3.1604818478032654E-005   8.4621606578279631E-004   3.7348402796863071E-002
 chl2c          25   4.5426679235459781E-002   4.5426679235459781E-002  0.31406487500000002        1.5488446586879400E-004   7.6498229442439050E-017
 chl          25   3.8440785784207821E-005   8.4621606578279631E-004   4.5426679235459781E-002
 chl2c          26   4.7955660680174553E-002   4.7955660680174553E-002  0.49427735000000000        1.5488446586879400E-004   7.0327320912095970E-017
 chl          26   4.0580850512792045E-005   8.4621606578279631E-004   4.7955660680174553E-002
 chl2c          27   4.5333133499525620E-002   4.5333133499525620E-002  0.30964730000000001        1.5488446586879400E-004   8.0252851904054661E-017
 chl          27   3.8361625879574859E-005   8.4621606578279631E-004   4.5333133499525620E-002
 chl2c          28   3.1209236063453518E-002   3.1209236063453518E-002  0.28776342500000002        2.4783817841439286E-004   7.9815111358165527E-017
 chl          28   2.6409756957702202E-005   8.4621606578279631E-004   3.1209236063453518E-002
 chl2c          29   3.7743217595736761E-002   3.7743217595736761E-002  0.68676297499999994        4.3840076055207794E-004   3.3980811788416351E-006
 chl          29   3.1938917103848374E-005   8.4621606578279631E-004   3.7743217595736761E-002
 chl2c          30   2.5380056985171612E-002   2.5380056985171612E-002  0.38930277499999999        3.3573115304117151E-004   1.6176282045533298E-016
 chl          30   2.1477011971335101E-005   8.4621606578279631E-004   2.5380056985171612E-002
 chl2c          31   3.7576959810037038E-002   3.7576959810037038E-002  0.63559385000000002        4.3840076055207794E-004   3.6245004736391331E-006
 chl          31   3.1798227094527797E-005   8.4621606578279631E-004   3.7576959810037038E-002
 chl2c          32   2.0893126428578448E-002   2.0893126428578448E-002  0.24722667500000001        4.3840076055207794E-004   3.3521500201593182E-006
 chl          32   1.7680099248294221E-005   8.4621606578279631E-004   2.0893126428578448E-002
 chl2c          33   3.7458922634011876E-002   3.7458922634011876E-002  0.60343137499999999        4.3840076055207794E-004   1.0947403269006896E-006
 chl          33   3.1698342139815672E-005   8.4621606578279631E-004   3.7458922634011876E-002
 chl2c          34   2.5350269098008315E-002   2.5350269098008315E-002  0.38241020000000003        3.3573115304117151E-004   2.7367342707803405E-006
 chl          34   2.1451804982651793E-005   8.4621606578279631E-004   2.5350269098008315E-002
 chl2c          35   2.5740370148566064E-002   2.5740370148566064E-002  0.49574644999999995        3.3573115304117151E-004   1.1679963930715201E-016
 chl          35   2.1781914758912509E-005   8.4621606578279631E-004   2.5740370148566064E-002
 chl2c          36   3.7770393924465726E-002   3.7770393924465726E-002  0.69587337500000002        4.3840076055207794E-004   1.2163671430502428E-016
 chl          36   3.1961914149827817E-005   8.4621606578279631E-004   3.7770393924465726E-002
 chl2c          37   2.1353674699533250E-002   2.1353674699533250E-002  0.33194060000000003        4.3840076055207794E-004   1.0694122863381507E-016
 chl          37   1.8069822594244663E-005   8.4621606578279631E-004   2.1353674699533250E-002
 chl2c          38   2.1543295686358745E-002   2.1543295686358745E-002  0.38455722500000000        4.3840076055207794E-004   1.6511941236986163E-016
 chl          38   1.8230282919705983E-005   8.4621606578279631E-004   2.1543295686358745E-002
 chl2c          39   2.5670077108751441E-002   2.5670077108751441E-002  0.47091117500000002        3.3573115304117151E-004   1.3291243702537642E-016
 chl          39   2.1722431659308663E-005   8.4621606578279631E-004   2.5670077108751441E-002
 chl2c          40   3.7687445774703773E-002   3.7687445774703773E-002  0.66875547499999999        4.3840076055207794E-004   1.6011119129410071E-016
 chl          40   3.1891722092872296E-005   8.4621606578279631E-004   3.7687445774703773E-002
 chl2c          41   2.5582381488167241E-002   2.5582381488167241E-002  0.44304987499999998        3.3573115304117151E-004   9.6296808315647049E-017
 chl          41   2.1648222216271520E-005   8.4621606578279631E-004   2.5582381488167241E-002
 chl2c          42   3.7949995630725070E-002   3.7949995630725070E-002  0.76234377499999995        4.3840076055207794E-004   1.3506092226695602E-016
 chl          42   3.2113895999106475E-005   8.4621606578279631E-004   3.7949995630725070E-002
 chl2c          43   2.1185090152268007E-002   2.1185090152268007E-002  0.29539925000000000        4.3840076055207794E-004   1.6441192725103559E-016
 chl          43   1.7927163641906093E-005   8.4621606578279631E-004   2.1185090152268007E-002
 chl2c          44   3.7536352708156646E-002   3.7536352708156646E-002  0.62417262500000004        4.3840076055207794E-004   1.1538633306068383E-016
 chl          44   3.1763864712531729E-005   8.4621606578279631E-004   3.7536352708156646E-002
 chl2c          45   4.6544927192009838E-002   4.6544927192009838E-002  0.37662252499999999        1.5488446586879400E-004   1.8810112051090764E-006
 chl          45   3.9387065170569259E-005   8.4621606578279631E-004   4.6544927192009838E-002
 chl2c          46   3.7083195475449568E-002   3.7083195475449568E-002  0.51876034999999998        4.3840076055207794E-004   3.6427403632588823E-006
 chl          46   3.1380395781889325E-005   8.4621606578279631E-004   3.7083195475449568E-002
 chl2c          47   3.7519784612651236E-002   3.7519784612651236E-002  0.61962282499999999        4.3840076055207794E-004   1.4734862200463464E-016
 chl          47   3.1749844523935630E-005   8.4621606578279631E-004   3.7519784612651236E-002
 chl2c          48   3.7823212136301673E-002   3.7823212136301673E-002  0.71424949999999998        4.3840076055207794E-004   1.4170901830765667E-016
 chl          48   3.2006609769249320E-005   8.4621606578279631E-004   3.7823212136301673E-002
 chl2c          49   3.7152990741888416E-002   3.7152990741888416E-002  0.53276120000000005        4.3840076055207794E-004   1.3187977047257322E-016
 chl          49   3.1439457657665469E-005   8.4621606578279631E-004   3.7152990741888416E-002
 chl2c          50   2.1533072915600981E-002   2.1533072915600981E-002  0.38132569999999999        4.3840076055207794E-004   1.3647969836066569E-006
 chl          50   1.8221632246853949E-005   8.4621606578279631E-004   2.1533072915600981E-002
 chl2c          51   2.0700971146093840E-002   2.0700971146093840E-002  0.22275920000000002        4.3840076055207794E-004   1.7549372346680378E-016
 chl          51   1.7517494361130715E-005   8.4621606578279631E-004   2.0700971146093840E-002
 chl2c          52   3.7581825176985564E-002   3.7581825176985564E-002  0.63698869999999996        4.3840076055207794E-004   1.5681357561068259E-016
 chl          52   3.1802344246205568E-005   8.4621606578279631E-004   3.7581825176985564E-002
 chl2c          53   3.7925801262726190E-002   3.7925801262726190E-002  0.75269794999999995        4.3840076055207794E-004   1.4043411500505706E-016
 chl          53   3.2093422336204365E-005   8.4621606578279631E-004   3.7925801262726190E-002
 chl2c          54   3.7082433371327092E-002   3.7082433371327092E-002  0.51861124999999997        4.3840076055207794E-004   1.1520099368971507E-016
 chl          54   3.1379750877137085E-005   8.4621606578279631E-004   3.7082433371327092E-002
 chl2c          55   3.7357235588660491E-002   3.7357235588660491E-002  0.57808280000000001        4.3840076055207794E-004   3.5658955968226309E-006
 chl          55   3.1612292928357347E-005   8.4621606578279631E-004   3.7357235588660491E-002
 chl2c          56   3.7507394187257688E-002   3.7507394187257688E-002  0.61626080000000005        4.3840076055207794E-004   1.5722792113438664E-016
 chl          56   3.1739359546905726E-005   8.4621606578279631E-004   3.7507394187257688E-002
 chl2c          57   3.7727617852646313E-002   3.7727617852646313E-002  0.68163462500000005        4.3840076055207794E-004   3.7882517902143345E-006
 chl          57   3.1925716350623151E-005   8.4621606578279631E-004   3.7727617852646313E-002
 chl2c          58   3.7765358178394853E-002   3.7765358178394853E-002  0.69416802499999997        4.3840076055207794E-004   5.0077187486532470E-007
 chl          58   3.1957652820599444E-005   8.4621606578279631E-004   3.7765358178394853E-002
 chl2c          59   3.7173699120809672E-002   3.7173699120809672E-002  0.53705127500000005        4.3840076055207794E-004   1.5993576409370997E-016
 chl          59   3.1456981420604952E-005   8.4621606578279631E-004   3.7173699120809672E-002
 chl2c          60   3.7607757740906807E-002   3.7607757740906807E-002  0.64452155000000000        4.3840076055207794E-004   1.1433125581521728E-007
 chl          60   3.1824288798422662E-005   8.4621606578279631E-004   3.7607757740906807E-002
 chl2c          61   3.7805373434125003E-002   3.7805373434125003E-002  0.70794139999999994        4.3840076055207794E-004   1.3744283309370742E-016
 chl          61   3.1991514372874703E-005   8.4621606578279631E-004   3.7805373434125003E-002
 chl2c          62   3.7956103087269030E-002   3.7956103087269030E-002  0.76481592499999995        4.3840076055207794E-004   1.1217433136592027E-016
 chl          62   3.2119064226955048E-005   8.4621606578279631E-004   3.7956103087269030E-002
 chl2c          63   3.7855601011927406E-002   3.7855601011927406E-002  0.72597904999999996        4.3840076055207794E-004   1.5655778491941470E-006
 chl          63   3.2034017756156454E-005   8.4621606578279631E-004   3.7855601011927406E-002
 chl2c          64   2.5708982294816416E-002   2.5708982294816416E-002  0.48435739999999999        3.3573115304117151E-004   9.3691853638424203E-017
 chl          64   2.1755353852799114E-005   8.4621606578279631E-004   2.5708982294816416E-002
 chl2c          65   3.7953597170552002E-002   3.7953597170552002E-002  0.76379975000000000        4.3840076055207794E-004   1.2394154529214915E-016
 chl          65   3.2116943679969585E-005   8.4621606578279631E-004   3.7953597170552002E-002
 chl2c          66   3.1840477731474713E-002   3.1840477731474713E-002  0.35213202499999996        2.4783817841439286E-004   7.6106907340893333E-017
 chl          66   2.6943923798573268E-005   8.4621606578279631E-004   3.1840477731474713E-002
 chl2c          67   3.7937587124568600E-002   3.7937587124568600E-002  0.75736760000000003        4.3840076055207794E-004   1.3112993760386918E-016
 chl          67   3.2103395721844508E-005   8.4621606578279631E-004   3.7937587124568600E-002
 chl2c          68   3.7855407263856986E-002   3.7855407263856986E-002  0.72590779999999999        4.3840076055207794E-004   2.2334852174547164E-007
 chl          68   3.2033853803426549E-005   8.4621606578279631E-004   3.7855407263856986E-002
 chl2c          69   2.1732330561541505E-002   2.1732330561541505E-002  0.45524217500000003        4.3840076055207794E-004   2.8341699671406273E-006
 chl          69   1.8390247268078881E-005   8.4621606578279631E-004   2.1732330561541505E-002
 chl2c          70   3.2658010878182209E-002   3.2658010878182209E-002  0.48694062500000002        2.4783817841439286E-004   9.5913026214423889E-017
 chl          70   2.7635733481627112E-005   8.4621606578279631E-004   3.2658010878182209E-002
 chl2c          71   4.3481058864416305E-002   4.3481058864416305E-002  0.23986107500000001        1.5488446586879400E-004   8.3744258083726986E-017
 chl          71   3.6794370568316545E-005   8.4621606578279631E-004   4.3481058864416305E-002
 chl2c          72   3.7549776402781669E-002   3.7549776402781669E-002  0.62790522500000001        4.3840076055207794E-004   1.5772389735879677E-016
 chl          72   3.1775224058585589E-005   8.4621606578279631E-004   3.7549776402781669E-002
 chl2c          73   3.1852614277819484E-002   3.1852614277819484E-002  0.35362212500000001        2.4783817841439286E-004   9.2324569809202002E-017
 chl          73   2.6954193939073331E-005   8.4621606578279631E-004   3.1852614277819484E-002
 chl2c          74   3.7616827685877569E-002   3.7616827685877569E-002  0.64719590000000005        4.3840076055207794E-004   1.0639983876695298E-007
 chl          74   3.1831963931572685E-005   8.4621606578279631E-004   3.7616827685877569E-002
 chl2c          75   3.7826830779512356E-002   3.7826830779512356E-002  0.71554212500000003        4.3840076055207794E-004   1.2436251915377483E-016
 chl          75   3.2009671923270534E-005   8.4621606578279631E-004   3.7826830779512356E-002
 chl2c          76   3.7257729557919804E-002   3.7257729557919804E-002  0.55513977500000000        4.3840076055207794E-004   3.3921301506381728E-006
 chl          76   3.1528089326502298E-005   8.4621606578279631E-004   3.7257729557919804E-002
 chl2c          77   3.7138172437479272E-002   3.7138172437479272E-002  0.52973029999999999        4.3840076055207794E-004   1.0928588225513111E-016
 chl          77   3.1426918170406791E-005   8.4621606578279631E-004   3.7138172437479272E-002
 chl2c          78   4.7515248899399322E-002   4.7515248899399322E-002  0.45117492500000000        1.5488446586879400E-004   2.4507500990420601E-006
 chl          78   4.0208166988340038E-005   8.4621606578279631E-004   4.7515248899399322E-002
 prod   4.0066103780341752E-007   471.90229164333590        10.000000000000000     
 chl2c           1   3.7477407714772232E-002   3.7477407714772232E-002  0.60826437499999997        3.4038586514805082E-004   1.5009557229506737E-016
 chl           1   3.2136638987323779E-005   8.5749364608952614E-004   3.7477407714772232E-002
 chl2c           2   3.2640259920490348E-002   3.2640259920490348E-002  0.48302390000000001        1.9038937856632137E-004   1.7678543560444388E-006
 chl           2   2.7988815488531097E-005   8.5749364608952614E-004   3.2640259920490348E-002
 chl2c           3   3.7922212503796585E-002   3.7922212503796585E-002  0.75128689999999998        3.4038586514805082E-004   1.6175710938176561E-016
 chl           3   3.2518056267662353E-005   8.5749364608952614E-004   3.7922212503796585E-002
 chl2c           4   3.7976509103863923E-002   3.7976509103863923E-002  0.77318742499999993        3.4038586514805082E-004   2.4778811318588036E-006
 chl           4   3.2564615257224361E-005   8.5749364608952614E-004   3.7976509103863923E-002
 chl2c           5   2.5710500362372445E-002   2.5710500362372445E-002  0.48489679999999996        2.2746811789575263E-004   2.9411275320293645E-006
 chl           5   2.2046590698516832E-005   8.5749364608952614E-004   2.5710500362372445E-002
 chl2c           6   3.1261039902252048E-002   3.1261039902252048E-002  0.29222855000000003        1.9038937856632137E-004   1.0196030655476592E-016
 chl           6   2.6806143086332273E-005   8.5749364608952614E-004   3.1261039902252048E-002
 chl2c           7   4.3064391842467263E-002   4.3064391842467263E-002  0.22770740000000000        1.2132031790167841E-004   1.3557289590800930E-006
 chl           7   3.6927442377625302E-005   8.5749364608952614E-004   4.3064391842467263E-002
 chl2c           8   4.7969800906495587E-002   4.7969800906495587E-002  0.49578364999999996        1.2132031790167841E-004   7.3323101293059415E-017
 chl           8   4.1133799481499558E-005   8.5749364608952614E-004   4.7969800906495587E-002
 chl2c           9   2.4803669054600401E-002   2.4803669054600401E-002  0.28700202499999999        2.2746811789575263E-004   2.4526541388694159E-008
 chl           9   2.1268988614027248E-005   8.5749364608952614E-004   2.4803669054600401E-002
 chl2c          10   2.9015562197670819E-002   2.5387016219684602E-002  0.39094662499999999        2.2746811789575263E-004   3.5646191709514831E-006
 chl          10   2.4880660222218173E-005   8.5749364608952614E-004   2.9015562197670819E-002
 chl2c          11   2.1820572217820047E-002   2.1820572217820047E-002  0.49737575000000001        3.4038586514805082E-004   1.4824296828316570E-016
 chl          11   1.8711002030818331E-005   8.5749364608952614E-004   2.1820572217820047E-002
 chl2c          12   4.5290941298723353E-002   4.5290941298723353E-002  0.30768942500000002        1.2132031790167841E-004   7.2699197694087824E-017
 chl          12   3.8836694389068989E-005   8.5749364608952614E-004   4.5290941298723353E-002
 chl2c          13   3.7935816987997487E-002   3.7935816987997487E-002  0.75666275000000005        3.4038586514805082E-004   1.3472639291955385E-016
 chl          13   3.2529722026422950E-005   8.5749364608952614E-004   3.7935816987997487E-002
 chl2c          14   4.6856526101924839E-002   4.6856526101924839E-002  0.39804095000000000        1.2132031790167841E-004   8.0764800711553045E-017
 chl          14   4.0179173410228583E-005   8.5749364608952614E-004   4.6856526101924839E-002
 chl2c          15   2.1939400066527313E-002   2.0954299823745293E-002  0.25607262500000000        3.4038586514805082E-004   4.0838179676351030E-006
 chl          15   1.8812896156063296E-005   8.5749364608952614E-004   2.1939400066527313E-002
 chl2c          16   3.7823443882273475E-002   3.7823443882273475E-002  0.71433214999999994        3.4038586514805082E-004   1.6833123769437677E-016
 chl          16   3.2433362802273263E-005   8.5749364608952614E-004   3.7823443882273475E-002
 chl2c          17   3.7542254757581245E-002   3.7542254757581245E-002  0.62580860000000005        3.4038586514805082E-004   1.6824778964194989E-016
 chl          17   3.2192244914500199E-005   8.5749364608952614E-004   3.7542254757581245E-002
 chl2c          18   2.5694475239060960E-002   2.5694475239060960E-002  0.47925950000000000        2.2746811789575263E-004   1.5466234008486872E-016
 chl          18   2.2032849257099430E-005   8.5749364608952614E-004   2.5694475239060960E-002
 chl2c          19   3.7570220750293731E-002   3.7570220750293731E-002  0.63367130000000005        3.4038586514805082E-004   9.4193542009889436E-007
 chl          19   3.2216225575557742E-005   8.5749364608952614E-004   3.7570220750293731E-002
 chl2c          20   3.7020645196759419E-002   3.7020645196759419E-002  0.50678202500000002        3.4038586514805082E-004   1.4823638685080313E-016
 chl          20   3.1744968030355941E-005   8.5749364608952614E-004   3.7020645196759419E-002
 chl2c          21   3.7838475073783531E-002   3.7838475073783531E-002  0.71973185000000006        3.4038586514805082E-004   9.5326189080007543E-008
 chl          21   3.2446251953486294E-005   8.5749364608952614E-004   3.7838475073783531E-002
 chl2c          22   3.7613353106285476E-002   3.7613353106285476E-002  0.64616892500000001        3.4038586514805082E-004   3.7059213457300604E-006
 chl          22   3.2253211296761539E-005   8.5749364608952614E-004   3.7613353106285476E-002
 chl2c          23   3.2286562315070731E-002   3.2286562315070731E-002  0.41564179999999995        1.9038937856632137E-004   9.6132331482697791E-017
 chl          23   2.7685522039246694E-005   8.5749364608952614E-004   3.2286562315070731E-002
 chl2c          24   3.7348402796863071E-002   3.7348402796863071E-002  0.57597492500000003        3.4038586514805082E-004   1.2053363113355148E-016
 chl          24   3.2026018089902373E-005   8.5749364608952614E-004   3.7348402796863071E-002
 chl2c          25   4.5426679235459781E-002   4.5426679235459781E-002  0.31406487500000002        1.2132031790167841E-004   7.6393681068343327E-017
 chl          25   3.8953088807353776E-005   8.5749364608952614E-004   4.5426679235459781E-002
 chl2c          26   4.7955660680174553E-002   4.7955660680174553E-002  0.49427735000000000        1.2132031790167841E-004   7.0229958317723679E-017
 chl          26   4.1121674327275003E-005   8.5749364608952614E-004   4.7955660680174553E-002
 chl2c          27   4.5333133499525620E-002   4.5333133499525620E-002  0.30964730000000001        1.2132031790167841E-004   8.0151548606370811E-017
 chl          27   3.8872873933171466E-005   8.5749364608952614E-004   4.5333133499525620E-002
 chl2c          28   3.1209236063453518E-002   3.1209236063453518E-002  0.28776342500000002        1.9038937856632137E-004   7.9714267569451105E-017
 chl          28   2.6761721623719486E-005   8.5749364608952614E-004   3.1209236063453518E-002
 chl2c          29   3.7743217595736761E-002   3.7743217595736761E-002  0.68676297499999994        3.4038586514805082E-004   3.5541324384334235E-006
 chl          29   3.2364569271318673E-005   8.5749364608952614E-004   3.7743217595736761E-002
 chl2c          30   2.5380056985171612E-002   2.5380056985171612E-002  0.38930277499999999        2.2746811789575263E-004   1.6934465722959316E-016
 chl          30   2.1763237602174753E-005   8.5749364608952614E-004   2.5380056985171612E-002
 chl2c          31   3.7576959810037038E-002   3.7576959810037038E-002  0.63559385000000002        3.4038586514805082E-004   3.7790224747801217E-006
 chl          31   3.2222004276468249E-005   8.5749364608952614E-004   3.7576959810037038E-002
 chl2c          32   2.0893126428578448E-002   2.0893126428578448E-002  0.24722667500000001        3.4038586514805082E-004   3.6211244264521634E-006
 chl          32   1.7915723159451172E-005   8.5749364608952614E-004   2.0893126428578448E-002
 chl2c          33   3.7458922634011876E-002   3.7458922634011876E-002  0.60343137499999999        3.4038586514805082E-004   1.2780900830906230E-006
 chl          33   3.2120788148024320E-005   8.5749364608952614E-004   3.7458922634011876E-002
 chl2c          34   2.5350269098008315E-002   2.5350269098008315E-002  0.38241020000000003        2.2746811789575263E-004   2.8434226356024295E-006
 chl          34   2.1737694678201792E-005   8.5749364608952614E-004   2.5350269098008315E-002
 chl2c          35   2.5740370148566064E-002   2.5740370148566064E-002  0.49574644999999995        2.2746811789575263E-004   1.2275200028937093E-016
 chl          35   2.2072203850387913E-005   8.5749364608952614E-004   2.5740370148566064E-002
 chl2c          36   3.7770393924465726E-002   3.7770393924465726E-002  0.69587337500000002        3.4038586514805082E-004   1.2838499079613843E-016
 chl          36   3.2387872800527801E-005   8.5749364608952614E-004   3.7770393924465726E-002
 chl2c          37   2.1353674699533250E-002   2.1353674699533250E-002  0.33194060000000003        3.4038586514805082E-004   1.1248993978648214E-016
 chl          37   1.8310640375512433E-005   8.5749364608952614E-004   2.1353674699533250E-002
 chl2c          38   2.1543295686358745E-002   2.1543295686358745E-002  0.38455722500000000        3.4038586514805082E-004   1.7280942527322988E-016
 chl          38   1.8473239166880522E-005   8.5749364608952614E-004   2.1543295686358745E-002
 chl2c          39   2.5670077108751441E-002   2.5670077108751441E-002  0.47091117500000002        2.2746811789575263E-004   1.3948804245848351E-016
 chl          39   2.2011928015382554E-005   8.5749364608952614E-004   2.5670077108751441E-002
 chl2c          40   3.7687445774703773E-002   3.7687445774703773E-002  0.66875547499999999        3.4038586514805082E-004   1.6865342569001598E-016
 chl          40   3.2316745289152042E-005   8.5749364608952614E-004   3.7687445774703773E-002
 chl2c          41   2.5582381488167241E-002   2.5582381488167241E-002  0.44304987499999998        2.2746811789575263E-004   1.0139027088828874E-016
 chl          41   2.1936729577941726E-005   8.5749364608952614E-004   2.5582381488167241E-002
 chl2c          42   3.7949995630725070E-002   3.7949995630725070E-002  0.76234377499999995        3.4038586514805082E-004   1.4245299319180467E-016
 chl          42   3.2541880122472026E-005   8.5749364608952614E-004   3.7949995630725070E-002
 chl2c          43   2.1185090152268007E-002   2.1185090152268007E-002  0.29539925000000000        3.4038586514805082E-004   1.7207929073898067E-016
 chl          43   1.8166080197403607E-005   8.5749364608952614E-004   2.1185090152268007E-002
 chl2c          44   3.7536352708156646E-002   3.7536352708156646E-002  0.62417262500000004        3.4038586514805082E-004   1.2182823603347114E-016
 chl          44   3.2187183944619704E-005   8.5749364608952614E-004   3.7536352708156646E-002
 chl2c          45   4.6544927192009838E-002   4.6544927192009838E-002  0.37662252499999999        1.2132031790167841E-004   1.7846919249839253E-006
 chl          45   3.9911979324848048E-005   8.5749364608952614E-004   4.6544927192009838E-002
 chl2c          46   3.7083195475449568E-002   3.7083195475449568E-002  0.51876034999999998        3.4038586514805082E-004   3.8068595546675572E-006
 chl          46   3.1798604496893869E-005   8.5749364608952614E-004   3.7083195475449568E-002
 chl2c          47   3.7519784612651236E-002   3.7519784612651236E-002  0.61962282499999999        3.4038586514805082E-004   1.5531313803427319E-016
 chl          47   3.2172976907996009E-005   8.5749364608952614E-004   3.7519784612651236E-002
 chl2c          48   3.7823212136301673E-002   3.7823212136301673E-002  0.71424949999999998        3.4038586514805082E-004   1.4941278999105867E-016
 chl          48   3.2433164081574939E-005   8.5749364608952614E-004   3.7823212136301673E-002
 chl2c          49   3.7152990741888416E-002   3.7152990741888416E-002  0.53276120000000005        3.4038586514805082E-004   1.3912102598076534E-016
 chl          49   3.1858453494392306E-005   8.5749364608952614E-004   3.7152990741888416E-002
 chl2c          50   2.1533072915600981E-002   2.1533072915600981E-002  0.38132569999999999        3.4038586514805082E-004   1.6062889590736487E-006
 chl          50   1.8464473205910310E-005   8.5749364608952614E-004   2.1533072915600981E-002
 chl2c          51   2.0700971146093840E-002   2.0700971146093840E-002  0.22275920000000002        3.4038586514805082E-004   1.8350664726874314E-016
 chl          51   1.7750951225658084E-005   8.5749364608952614E-004   2.0700971146093840E-002
 chl2c          52   3.7581825176985564E-002   3.7581825176985564E-002  0.63698869999999996        3.4038586514805082E-004   1.6520817222532498E-016
 chl          52   3.2226176297712505E-005   8.5749364608952614E-004   3.7581825176985564E-002
 chl2c          53   3.7925801262726190E-002   3.7925801262726190E-002  0.75269794999999995        3.4038586514805082E-004   1.4807847572792469E-016
 chl          53   3.2521133605641838E-005   8.5749364608952614E-004   3.7925801262726190E-002
 chl2c          54   3.7082433371327092E-002   3.7082433371327092E-002  0.51861124999999997        3.4038586514805082E-004   1.2163374733896031E-016
 chl          54   3.1797950997451185E-005   8.5749364608952614E-004   3.7082433371327092E-002
 chl2c          55   3.7357235588660491E-002   3.7357235588660491E-002  0.57808280000000001        3.4038586514805082E-004   3.7769519859039847E-006
 chl          55   3.2033592152745888E-005   8.5749364608952614E-004   3.7357235588660491E-002
 chl2c          56   3.7507394187257688E-002   3.7507394187257688E-002  0.61626080000000005        3.4038586514805082E-004   1.6564113080196658E-016
 chl          56   3.2162352196948697E-005   8.5749364608952614E-004   3.7507394187257688E-002
 chl2c          57   3.7727617852646313E-002   3.7727617852646313E-002  0.68163462500000005        3.4038586514805082E-004   3.9257632901334443E-006
 chl          57   3.2351192590737983E-005   8.5749364608952614E-004   3.7727617852646313E-002
 chl2c          58   3.7765358178394853E-002   3.7765358178394853E-002  0.69416802499999997        3.4038586514805082E-004   6.5942963834500968E-007
 chl          58   3.2383554680268708E-005   8.5749364608952614E-004   3.7765358178394853E-002
 chl2c          59   3.7173699120809672E-002   3.7173699120809672E-002  0.53705127500000005        3.4038586514805082E-004   1.6847017299294269E-016
 chl          59   3.1876210797738095E-005   8.5749364608952614E-004   3.7173699120809672E-002
 chl2c          60   3.7607757740906807E-002   3.7607757740906807E-002  0.64452155000000000        3.4038586514805082E-004   1.9900746639607562E-007
 chl          60   3.2248413306501776E-005   8.5749364608952614E-004   3.7607757740906807E-002
 chl2c          61   3.7805373434125003E-002   3.7805373434125003E-002  0.70794139999999994        3.4038586514805082E-004   1.4494712175669608E-016
 chl          61   3.2417867507803960E-005   8.5749364608952614E-004   3.7805373434125003E-002
 chl2c          62   3.7956103087269030E-002   3.7956103087269030E-002  0.76481592499999995        3.4038586514805082E-004   1.1845714521661324E-016
 chl          62   3.2547117227652239E-005   8.5749364608952614E-004   3.7956103087269030E-002
 chl2c          63   3.7855601011927406E-002   3.7855601011927406E-002  0.72597904999999996        3.4038586514805082E-004   1.7577281496403460E-006
 chl          63   3.2460937336627984E-005   8.5749364608952614E-004   3.7855601011927406E-002
 chl2c          64   2.5708982294816416E-002   2.5708982294816416E-002  0.48435739999999999        2.2746811789575263E-004   9.8670796354855479E-017
 chl          64   2.2045288965233201E-005   8.5749364608952614E-004   2.5708982294816416E-002
 chl2c          65   3.7953597170552002E-002   3.7953597170552002E-002  0.76379975000000000        3.4038586514805082E-004   1.3080173224362470E-016
 chl          65   3.2544968419989761E-005   8.5749364608952614E-004   3.7953597170552002E-002
 chl2c          66   3.1840477731474713E-002   3.1840477731474713E-002  0.35213202499999996        1.9038937856632137E-004   7.6002808141386529E-017
 chl          66   2.7303007343194615E-005   8.5749364608952614E-004   3.1840477731474713E-002
 chl2c          67   3.7937587124568600E-002   3.7937587124568600E-002  0.75736760000000003        3.4038586514805082E-004   1.3833548680311936E-016
 chl          67   3.2531239907285394E-005   8.5749364608952614E-004   3.7937587124568600E-002
 chl2c          68   3.7855407263856986E-002   3.7855407263856986E-002  0.72590779999999999        3.4038586514805082E-004   3.5106020842633136E-007
 chl          68   3.2460771198888662E-005   8.5749364608952614E-004   3.7855407263856986E-002
 chl2c          69   2.1732330561541505E-002   2.1732330561541505E-002  0.45524217500000003        3.4038586514805082E-004   2.9564799176768758E-006
 chl          69   1.8635335371239064E-005   8.5749364608952614E-004   2.1732330561541505E-002
 chl2c          70   3.2658010878182209E-002   3.2658010878182209E-002  0.48694062500000002        1.9038937856632137E-004   9.5795946762819186E-017
 chl          70   2.8004036821963869E-005   8.5749364608952614E-004   3.2658010878182209E-002
 chl2c          71   4.3481058864416305E-002   4.3481058864416305E-002  0.23986107500000001        1.2132031790167841E-004   8.3631551603557505E-017
 chl          71   3.7284731701481649E-005   8.5749364608952614E-004   4.3481058864416305E-002
 chl2c          72   3.7549776402781669E-002   3.7549776402781669E-002  0.62790522500000001        3.4038586514805082E-004   1.6615936347393106E-016
 chl          72   3.2198694677467703E-005   8.5749364608952614E-004   3.7549776402781669E-002
 chl2c          73   3.1852614277819484E-002   3.1852614277819484E-002  0.35362212500000001        1.9038937856632137E-004   9.2202593568418716E-017
 chl          73   2.7313414354570729E-005   8.5749364608952614E-004   3.1852614277819484E-002
 chl2c          74   3.7616827685877569E-002   3.7616827685877569E-002  0.64719590000000005        3.4038586514805082E-004   2.0403345735825039E-007
 chl          74   3.2256190726684586E-005   8.5749364608952614E-004   3.7616827685877569E-002
 chl2c          75   3.7826830779512356E-002   3.7826830779512356E-002  0.71554212500000003        3.4038586514805082E-004   1.3124308457305886E-016
 chl          75   3.2436267045135563E-005   8.5749364608952614E-004   3.7826830779512356E-002
 chl2c          76   3.7257729557919804E-002   3.7257729557919804E-002  0.55513977500000000        3.4038586514805082E-004   3.5575884179146612E-006
 chl          76   3.1948266363638164E-005   8.5749364608952614E-004   3.7257729557919804E-002
 chl2c          77   3.7138172437479272E-002   3.7138172437479272E-002  0.52973029999999999        3.4038586514805082E-004   1.1542467395288374E-016
 chl          77   3.1845746892515647E-005   8.5749364608952614E-004   3.7138172437479272E-002
 chl2c          78   4.7515248899399322E-002   4.7515248899399322E-002  0.45117492500000000        1.2132031790167841E-004   2.4157783612605998E-006
 chl          78   4.0744024023597268E-005   8.5749364608952614E-004   4.7515248899399322E-002
 prod   4.0002535197791482E-007   308.47507027311480        10.000000000000000     
 chl2c           1   3.7477407714772232E-002   3.7477407714772232E-002  0.60826437499999997        2.7850197650426651E-004   1.5231775275024612E-016
 chl           1   3.2390250143937492E-005   8.6426068714380252E-004   3.7477407714772232E-002
 chl2c           2   3.2640259920490348E-002   3.2640259920490348E-002  0.48302390000000001        1.5914456108066704E-004   1.7558949811365706E-006
 chl           2   2.8209693467435304E-005   8.6426068714380252E-004   3.2640259920490348E-002
 chl2c           3   3.7922212503796585E-002   3.7922212503796585E-002  0.75128689999999998        2.7850197650426651E-004   1.6412333783851188E-016
 chl           3   3.2774677436544539E-005   8.6426068714380252E-004   3.7922212503796585E-002
 chl2c           4   3.7976509103863923E-002   3.7976509103863923E-002  0.77318742499999993        2.7850197650426651E-004   2.6010404822012913E-006
 chl           4   3.2821603853428309E-005   8.6426068714380252E-004   3.7976509103863923E-002
 chl2c           5   3.2531622666287278E-002   2.5710500362372445E-002  0.48489679999999996        1.7015741823073912E-004   2.9667897522062091E-006
 chl           5   2.8115802559468343E-005   8.6426068714380252E-004   3.2531622666287278E-002
 chl2c           6   3.1261039902252048E-002   3.1261039902252048E-002  0.29222855000000003        1.5914456108066704E-004   1.0181360810576272E-016
 chl           6   2.7017687826750186E-005   8.6426068714380252E-004   3.1261039902252048E-002
 chl2c           7   4.3064391842467263E-002   4.3064391842467263E-002  0.22770740000000000        1.0307543646195119E-004   1.3857532718291950E-006
 chl           7   3.7218860885200720E-005   8.6426068714380252E-004   4.3064391842467263E-002
 chl2c           8   4.7969800906495587E-002   4.7969800906495587E-002  0.49578364999999996        1.0307543646195119E-004   7.3209558353346282E-017
 chl           8   4.1458413093599280E-005   8.6426068714380252E-004   4.7969800906495587E-002
 chl2c           9   2.4803669054600401E-002   2.4803669054600401E-002  0.28700202499999999        1.7015741823073912E-004   9.3849100122202582E-008
 chl           9   2.1436836060816413E-005   8.6426068714380252E-004   2.4803669054600401E-002
 chl2c          10   3.8122237737074932E-002   2.5387016219684602E-002  0.39094662499999999        1.7015741823073912E-004   3.5938351285194753E-006
 chl          10   3.2947551382103781E-005   8.6426068714380252E-004   3.8122237737074932E-002
 chl2c          11   2.1820572217820047E-002   2.1820572217820047E-002  0.49737575000000001        2.7850197650426651E-004   1.5019828975029857E-016
 chl          11   1.8858662738844121E-005   8.6426068714380252E-004   2.1820572217820047E-002
 chl2c          12   4.5290941298723353E-002   4.5290941298723353E-002  0.30768942500000002        1.0307543646195119E-004   7.2586474121203990E-017
 chl          12   3.9143180048224269E-005   8.6426068714380252E-004   4.5290941298723353E-002
 chl2c          13   3.7935816987997487E-002   3.7935816987997487E-002  0.75666275000000005        2.7850197650426651E-004   1.3675264961594479E-016
 chl          13   3.2786435257408241E-005   8.6426068714380252E-004   3.7935816987997487E-002
 chl2c          14   4.6856526101924839E-002   4.6856526101924839E-002  0.39804095000000000        1.0307543646195119E-004   8.0643699540474226E-017
 chl          14   4.0496253446021081E-005   8.6426068714380252E-004   4.6856526101924839E-002
 chl2c          15   2.6504912706569080E-002   2.0954299823745293E-002  0.25607262500000000        2.7850197650426651E-004   4.1169634491712231E-006
 chl          15   2.2907154068465894E-005   8.6426068714380252E-004   2.6504912706569080E-002
 chl2c          16   3.7823443882273475E-002   3.7823443882273475E-002  0.71433214999999994        2.7850197650426651E-004   1.7077693478674770E-016
 chl          16   3.2689315599838728E-005   8.6426068714380252E-004   3.7823443882273475E-002
 chl2c          17   3.7542254757581245E-002   3.7542254757581245E-002  0.62580860000000005        2.7850197650426651E-004   1.7069248581823670E-016
 chl          17   3.2446294893714856E-005   8.6426068714380252E-004   3.7542254757581245E-002
 chl2c          18   2.5694475239060960E-002   2.5694475239060960E-002  0.47925950000000000        1.7015741823073912E-004   1.5667750646934615E-016
 chl          18   2.2206724825910244E-005   8.6426068714380252E-004   2.5694475239060960E-002
 chl2c          19   3.7570220750293731E-002   3.7570220750293731E-002  0.63367130000000005        2.7850197650426651E-004   1.0283981632375923E-006
 chl          19   3.2470464801793211E-005   8.6426068714380252E-004   3.7570220750293731E-002
 chl2c          20   3.7020645196759419E-002   3.7020645196759419E-002  0.50678202500000002        2.7850197650426651E-004   1.5043523552041199E-016
 chl          20   3.1995488256258206E-005   8.6426068714380252E-004   3.7020645196759419E-002
 chl2c          21   3.7838475073783531E-002   3.7838475073783531E-002  0.71973185000000006        2.7850197650426651E-004   1.4990053251979305E-007
 chl          21   3.2702306467741795E-005   8.6426068714380252E-004   3.7838475073783531E-002
 chl2c          22   3.7613353106285476E-002   3.7613353106285476E-002  0.64616892500000001        2.7850197650426651E-004   3.7773499277074557E-006
 chl          22   3.2507742401420767E-005   8.6426068714380252E-004   3.7613353106285476E-002
 chl2c          23   3.2286562315070731E-002   3.2286562315070731E-002  0.41564179999999995        1.5914456108066704E-004   9.5990563424771931E-017
 chl          23   2.7904006531934230E-005   8.6426068714380252E-004   3.2286562315070731E-002
 chl2c          24   3.7348402796863071E-002   3.7348402796863071E-002  0.57597492500000003        2.7850197650426651E-004   1.2237275396045342E-016
 chl          24   3.2278756264940393E-005   8.6426068714380252E-004   3.7348402796863071E-002
 chl2c          25   4.5426679235459781E-002   4.5426679235459781E-002  0.31406487500000002        1.0307543646195119E-004   7.6276142280961376E-017
 chl          25   3.9260493010699573E-005   8.6426068714380252E-004   4.5426679235459781E-002
 chl2c          26   4.7955660680174553E-002   4.7955660680174553E-002  0.49427735000000000        1.0307543646195119E-004   7.0120502293611852E-017
 chl          26   4.1446192251882690E-005   8.6426068714380252E-004   4.7955660680174553E-002
 chl2c          27   4.5333133499525620E-002   4.5333133499525620E-002  0.30964730000000001        1.0307543646195119E-004   8.0031225696500225E-017
 chl          27   3.9179645108681744E-005   8.6426068714380252E-004   4.5333133499525620E-002
 chl2c          28   3.1209236063453518E-002   3.1209236063453518E-002  0.28776342500000002        1.5914456108066704E-004   7.9594500900634810E-017
 chl          28   2.6972915805433480E-005   8.6426068714380252E-004   3.1209236063453518E-002
 chl2c          29   3.7743217595736761E-002   3.7743217595736761E-002  0.68676297499999994        2.7850197650426651E-004   3.5887582223541975E-006
 chl          29   3.2619979174309513E-005   8.6426068714380252E-004   3.7743217595736761E-002
 chl2c          30   2.5380056985171612E-002   2.5380056985171612E-002  0.38930277499999999        1.7015741823073912E-004   1.7148960261410964E-016
 chl          30   2.1934985489753283E-005   8.6426068714380252E-004   2.5380056985171612E-002
 chl2c          31   3.7576959810037038E-002   3.7576959810037038E-002  0.63559385000000002        2.7850197650426651E-004   3.8077401373202668E-006
 chl          31   3.2476289106197660E-005   8.6426068714380252E-004   3.7576959810037038E-002
 chl2c          32   2.4148252025421941E-002   2.0893126428578448E-002  0.24722667500000001        2.7850197650426651E-004   3.7266769576924071E-006
 chl          32   2.0870384888812887E-005   8.6426068714380252E-004   2.4148252025421941E-002
 chl2c          33   3.7458922634011876E-002   3.7458922634011876E-002  0.60343137499999999        2.7850197650426651E-004   1.3724911703451252E-006
 chl          33   3.2374274215337644E-005   8.6426068714380252E-004   3.7458922634011876E-002
 chl2c          34   3.0900667804488378E-002   2.5350269098008315E-002  0.38241020000000003        1.7015741823073912E-004   2.8600993416174506E-006
 chl          34   2.6706232389909502E-005   8.6426068714380252E-004   3.0900667804488378E-002
 chl2c          35   2.5740370148566064E-002   2.5740370148566064E-002  0.49574644999999995        1.7015741823073912E-004   1.2445057252746663E-016
 chl          35   2.2246389991935528E-005   8.6426068714380252E-004   2.5740370148566064E-002
 chl2c          36   3.7770393924465726E-002   3.7770393924465726E-002  0.69587337500000002        2.7850197650426651E-004   1.3032837593673588E-016
 chl          36   3.2643466606850853E-005   8.6426068714380252E-004   3.7770393924465726E-002
 chl2c          37   2.1353674699533250E-002   2.1353674699533250E-002  0.33194060000000003        2.7850197650426651E-004   1.1407633919030776E-016
 chl          37   1.8455141568863839E-005   8.6426068714380252E-004   2.1353674699533250E-002
 chl2c          38   2.1543295686358745E-002   2.1543295686358745E-002  0.38455722500000000        2.7850197650426651E-004   1.7498357517743336E-016
 chl          38   1.8619023533234527E-005   8.6426068714380252E-004   2.1543295686358745E-002
 chl2c          39   2.5670077108751441E-002   2.5670077108751441E-002  0.47091117500000002        1.7015741823073912E-004   1.4135865262193585E-016
 chl          39   2.2185638481043916E-005   8.6426068714380252E-004   2.5670077108751441E-002
 chl2c          40   3.7687445774703773E-002   3.7687445774703773E-002  0.66875547499999999        2.7850197650426651E-004   1.7110298537904186E-016
 chl          40   3.2571777781940277E-005   8.6426068714380252E-004   3.7687445774703773E-002
 chl2c          41   2.5582381488167241E-002   2.5582381488167241E-002  0.44304987499999998        1.7015741823073912E-004   1.0284950934507712E-016
 chl          41   2.2109846603738314E-005   8.6426068714380252E-004   2.5582381488167241E-002
 chl2c          42   3.7949995630725070E-002   3.7949995630725070E-002  0.76234377499999995        2.7850197650426651E-004   1.4457861572820199E-016
 chl          42   3.2798689300914755E-005   8.6426068714380252E-004   3.7949995630725070E-002
 chl2c          43   2.1185090152268007E-002   2.1185090152268007E-002  0.29539925000000000        2.7850197650426651E-004   1.7424733103081005E-016
 chl          43   1.8309440572202551E-005   8.6426068714380252E-004   2.1185090152268007E-002
 chl2c          44   3.7536352708156646E-002   3.7536352708156646E-002  0.62417262500000004        2.7850197650426651E-004   1.2368467734050403E-016
 chl          44   3.2441193984423593E-005   8.6426068714380252E-004   3.7536352708156646E-002
 chl2c          45   4.6544927192009838E-002   4.6544927192009838E-002  0.37662252499999999        1.0307543646195119E-004   1.7209640497879116E-006
 chl          45   4.0226950758024682E-005   8.6426068714380252E-004   4.6544927192009838E-002
 chl2c          46   3.7083195475449568E-002   3.7083195475449568E-002  0.51876034999999998        2.7850197650426651E-004   3.8422523855294295E-006
 chl          46   3.2049548003099995E-005   8.6426068714380252E-004   3.7083195475449568E-002
 chl2c          47   3.7519784612651236E-002   3.7519784612651236E-002  0.61962282499999999        2.7850197650426651E-004   1.5760025704637097E-016
 chl          47   3.2426874830817425E-005   8.6426068714380252E-004   3.7519784612651236E-002
 chl2c          48   3.7823212136301673E-002   3.7823212136301673E-002  0.71424949999999998        2.7850197650426651E-004   1.5162641363923470E-016
 chl          48   3.2689115310905896E-005   8.6426068714380252E-004   3.7823212136301673E-002
 chl2c          49   3.7152990741888416E-002   3.7152990741888416E-002  0.53276120000000005        2.7850197650426651E-004   1.4120401464051781E-016
 chl          49   3.2109869308031816E-005   8.6426068714380252E-004   3.7152990741888416E-002
 chl2c          50   2.1533072915600981E-002   2.1533072915600981E-002  0.38132569999999999        2.7850197650426651E-004   1.7318863079452774E-006
 chl          50   1.8610188394354905E-005   8.6426068714380252E-004   2.1533072915600981E-002
 chl2c          51   2.0700971146093840E-002   2.0700971146093840E-002  0.22275920000000002        2.7850197650426651E-004   1.8576759500975547E-016
 chl          51   1.7891035547267090E-005   8.6426068714380252E-004   2.0700971146093840E-002
 chl2c          52   3.7581825176985564E-002   3.7581825176985564E-002  0.63698869999999996        2.7850197650426651E-004   1.6761627299640071E-016
 chl          52   3.2480494051579799E-005   8.6426068714380252E-004   3.7581825176985564E-002
 chl2c          53   3.7925801262726190E-002   3.7925801262726190E-002  0.75269794999999995        2.7850197650426651E-004   1.5027533803729358E-016
 chl          53   3.2777779059803032E-005   8.6426068714380252E-004   3.7925801262726190E-002
 chl2c          54   3.7082433371327092E-002   3.7082433371327092E-002  0.51861124999999997        2.7850197650426651E-004   1.2348759008851900E-016
 chl          54   3.2048889346467423E-005   8.6426068714380252E-004   3.7082433371327092E-002
 chl2c          55   3.7357235588660491E-002   3.7357235588660491E-002  0.57808280000000001        2.7850197650426651E-004   3.8405370352676053E-006
 chl          55   3.2286390099648631E-005   8.6426068714380252E-004   3.7357235588660491E-002
 chl2c          56   3.7507394187257688E-002   3.7507394187257688E-002  0.61626080000000005        2.7850197650426651E-004   1.6805446044046724E-016
 chl          56   3.2416166273252792E-005   8.6426068714380252E-004   3.7507394187257688E-002
 chl2c          57   3.7727617852646313E-002   3.7727617852646313E-002  0.68163462500000005        2.7850197650426651E-004   3.9399769078237190E-006
 chl          57   3.2606496929626895E-005   8.6426068714380252E-004   3.7727617852646313E-002
 chl2c          58   3.7765358178394853E-002   3.7765358178394853E-002  0.69416802499999997        2.7850197650426651E-004   7.5372254499430489E-007
 chl          58   3.2639114409491359E-005   8.6426068714380252E-004   3.7765358178394853E-002
 chl2c          59   3.7173699120809672E-002   3.7173699120809672E-002  0.53705127500000005        2.7850197650426651E-004   1.7091753609737055E-016
 chl          59   3.2127766745827934E-005   8.6426068714380252E-004   3.7173699120809672E-002
 chl2c          60   3.7607757740906807E-002   3.7607757740906807E-002  0.64452155000000000        2.7850197650426651E-004   2.5378021657778587E-007
 chl          60   3.2502906547093776E-005   8.6426068714380252E-004   3.7607757740906807E-002
 chl2c          61   3.7805373434125003E-002   3.7805373434125003E-002  0.70794139999999994        2.7850197650426651E-004   1.4710444394342105E-016
 chl          61   3.2673698021904929E-005   8.6426068714380252E-004   3.7805373434125003E-002
 chl2c          62   3.7956103087269030E-002   3.7956103087269030E-002  0.76481592499999995        2.7850197650426651E-004   1.2026838521195337E-016
 chl          62   3.2803967735504135E-005   8.6426068714380252E-004   3.7956103087269030E-002
 chl2c          63   3.7855601011927406E-002   3.7855601011927406E-002  0.72597904999999996        2.7850197650426651E-004   1.8464681782118876E-006
 chl          63   3.2717107742810007E-005   8.6426068714380252E-004   3.7855601011927406E-002
 chl2c          64   2.5708982294816416E-002   2.5708982294816416E-002  0.48435739999999999        1.7015741823073912E-004   1.0009794414975057E-016
 chl          64   2.2219262703885889E-005   8.6426068714380252E-004   2.5708982294816416E-002
 chl2c          65   3.7953597170552002E-002   3.7953597170552002E-002  0.76379975000000000        2.7850197650426651E-004   1.3277684091537922E-016
 chl          65   3.2801801970200351E-005   8.6426068714380252E-004   3.7953597170552002E-002
 chl2c          66   3.1840477731474713E-002   3.1840477731474713E-002  0.35213202499999996        1.5914456108066704E-004   7.5885774619850267E-017
 chl          66   2.7518473163191279E-005   8.6426068714380252E-004   3.1840477731474713E-002
 chl2c          67   3.7937587124568600E-002   3.7937587124568600E-002  0.75736760000000003        2.7850197650426651E-004   1.4040837650762759E-016
 chl          67   3.2787965116857536E-005   8.6426068714380252E-004   3.7937587124568600E-002
 chl2c          68   3.7855407263856986E-002   3.7855407263856986E-002  0.72590779999999999        2.7850197650426651E-004   4.3221229232894549E-007
 chl          68   3.2716940293969535E-005   8.6426068714380252E-004   3.7855407263856986E-002
 chl2c          69   2.1732330561541505E-002   2.1732330561541505E-002  0.45524217500000003        2.7850197650426651E-004   2.9829968142441193E-006
 chl          69   1.8782398944354122E-005   8.6426068714380252E-004   2.1732330561541505E-002
 chl2c          70   3.2658010878182209E-002   3.2658010878182209E-002  0.48694062500000002        1.5914456108066704E-004   9.5656432954027587E-017
 chl          70   2.8225034922327533E-005   8.6426068714380252E-004   3.2658010878182209E-002
 chl2c          71   4.3481058864416305E-002   4.3481058864416305E-002  0.23986107500000001        1.0307543646195119E-004   8.3504835427676249E-017
 chl          71   3.7578969811900564E-005   8.6426068714380252E-004   4.3481058864416305E-002
 chl2c          72   3.7549776402781669E-002   3.7549776402781669E-002  0.62790522500000001        2.7850197650426651E-004   1.6857894472877142E-016
 chl          72   3.2452795555964225E-005   8.6426068714380252E-004   3.7549776402781669E-002
 chl2c          73   3.1852614277819484E-002   3.1852614277819484E-002  0.35362212500000001        1.5914456108066704E-004   9.2065448179764897E-017
 chl          73   2.7528962303074761E-005   8.6426068714380252E-004   3.1852614277819484E-002
 chl2c          74   3.7616827685877569E-002   3.7616827685877569E-002  0.64719590000000005        2.7850197650426651E-004   2.6794528945946066E-007
 chl          74   3.2510745343966565E-005   8.6426068714380252E-004   3.7616827685877569E-002
 chl2c          75   3.7826830779512356E-002   3.7826830779512356E-002  0.71554212500000003        2.7850197650426651E-004   1.3322396795191211E-016
 chl          75   3.2692242761973689E-005   8.6426068714380252E-004   3.7826830779512356E-002
 chl2c          76   3.7257729557919804E-002   3.7257729557919804E-002  0.55513977500000000        2.7850197650426651E-004   3.5971067296394671E-006
 chl          76   3.2200390949145734E-005   8.6426068714380252E-004   3.7257729557919804E-002
 chl2c          77   3.7138172437479272E-002   3.7138172437479272E-002  0.52973029999999999        2.7850197650426651E-004   1.1719496191264336E-016
 chl          77   3.2097062430080861E-005   8.6426068714380252E-004   3.7138172437479272E-002
 chl2c          78   4.7515248899399322E-002   4.7515248899399322E-002  0.45117492500000000        1.0307543646195119E-004   2.3910078241503251E-006
 chl          78   4.1065561663603662E-005   8.6426068714380252E-004   4.7515248899399322E-002
 prod   3.9931101473678199E-007   234.28818222764781        10.000000000000000     
 chl2c           1   3.7477407714772232E-002   3.7477407714772232E-002  0.60826437499999997        2.3168612742830775E-004   1.4809841674798799E-016
 chl           1   3.2703979066803970E-005   8.7263183504320268E-004   3.7477407714772232E-002
 chl2c           2   3.2640259920490348E-002   3.2640259920490348E-002  0.48302390000000001        1.3530441334752710E-004   1.7338863302069100E-006
 chl           2   2.8482929910704594E-005   8.7263183504320268E-004   3.2640259920490348E-002
 chl2c           3   3.7922212503796585E-002   3.7922212503796585E-002  0.75128689999999998        2.3168612742830775E-004   1.5962757289761243E-016
 chl           3   3.3092129886086296E-005   8.7263183504320268E-004   3.7922212503796585E-002
 chl2c           4   3.7976509103863923E-002   3.7976509103863923E-002  0.77318742499999993        2.3168612742830775E-004   2.7008648770807322E-006
 chl           4   3.3139510827839666E-005   8.7263183504320268E-004   3.7976509103863923E-002
 chl2c           5   3.9360166283539687E-002   2.5710500362372445E-002  0.48489679999999996        1.3336640850077341E-004   2.8565332506053103E-006
 chl           5   3.4346934131610828E-005   8.7263183504320268E-004   3.9360166283539687E-002
 chl2c           6   3.1261039902252048E-002   3.1261039902252048E-002  0.29222855000000003        1.3530441334752710E-004   1.0168560738958567E-016
 chl           6   2.7279378615260987E-005   8.7263183504320268E-004   3.1261039902252048E-002
 chl2c           7   4.3064391842467263E-002   4.3064391842467263E-002  0.22770740000000000        8.8723044122316732E-005   1.4431222011039034E-006
 chl           7   3.7579359278511734E-005   8.7263183504320268E-004   4.3064391842467263E-002
 chl2c           8   4.7969800906495587E-002   4.7969800906495587E-002  0.49578364999999996        8.8723044122316732E-005   7.3131123082849645E-017
 chl           8   4.1859975391692328E-005   8.7263183504320268E-004   4.7969800906495587E-002
 chl2c           9   2.4803669054600401E-002   2.4803669054600401E-002  0.28700202499999999        1.3336640850077341E-004   2.5488061578692164E-007
 chl           9   2.1644471242920247E-005   8.7263183504320268E-004   2.4803669054600401E-002
 chl2c          10   4.5872191140053593E-002   2.5387016219684602E-002  0.39094662499999999        1.3336640850077341E-004   3.4655377155776559E-006
 chl          10   4.0029534331997511E-005   8.7263183504320268E-004   4.5872191140053593E-002
 chl2c          11   2.1820572217820047E-002   2.1820572217820047E-002  0.49737575000000001        2.3168612742830775E-004   1.4646221837382666E-016
 chl          11   1.9041325976129034E-005   8.7263183504320268E-004   2.1820572217820047E-002
 chl2c          12   4.5290941298723353E-002   4.5290941298723353E-002  0.30768942500000002        8.8723044122316732E-005   7.2508605134136526E-017
 chl          12   3.9522317216338929E-005   8.7263183504320268E-004   4.5290941298723353E-002
 chl2c          13   3.7935816987997487E-002   3.7935816987997487E-002  0.75666275000000005        2.3168612742830775E-004   1.3290858499202549E-016
 chl          13   3.3104001592099350E-005   8.7263183504320268E-004   3.7935816987997487E-002
 chl2c          14   4.6856526101924839E-002   4.6856526101924839E-002  0.39804095000000000        8.8723044122316732E-005   8.0539611878723824E-017
 chl          14   4.0888496356072399E-005   8.7263183504320268E-004   4.6856526101924839E-002
 chl2c          15   3.0265205701182862E-002   2.0954299823745293E-002  0.25607262500000000        2.3168612742830775E-004   3.9759289135444623E-006
 chl          15   2.6410381988983199E-005   8.7263183504320268E-004   3.0265205701182862E-002
 chl2c          16   3.7823443882273475E-002   3.7823443882273475E-002  0.71433214999999994        2.3168612742830775E-004   1.6612846946939680E-016
 chl          16   3.3005941242641899E-005   8.7263183504320268E-004   3.7823443882273475E-002
 chl2c          17   3.7542254757581245E-002   3.7542254757581245E-002  0.62580860000000005        2.3168612742830775E-004   1.6604594468909172E-016
 chl          17   3.2760566660767529E-005   8.7263183504320268E-004   3.7542254757581245E-002
 chl2c          18   2.5694475239060960E-002   2.5694475239060960E-002  0.47925950000000000        1.3336640850077341E-004   1.5282449725194719E-016
 chl          18   2.2421817078333898E-005   8.7263183504320268E-004   2.5694475239060960E-002
 chl2c          19   3.7570220750293731E-002   3.7570220750293731E-002  0.63367130000000005        2.3168612742830775E-004   1.1489611559415317E-006
 chl          19   3.2784970676307029E-005   8.7263183504320268E-004   3.7570220750293731E-002
 chl2c          20   3.7020645196759419E-002   3.7020645196759419E-002  0.50678202500000002        2.3168612742830775E-004   1.4626063092487149E-016
 chl          20   3.2305393552531496E-005   8.7263183504320268E-004   3.7020645196759419E-002
 chl2c          21   3.7838475073783531E-002   3.7838475073783531E-002  0.71973185000000006        2.3168612742830775E-004   2.6603172182857949E-007
 chl          21   3.3019057938872209E-005   8.7263183504320268E-004   3.7838475073783531E-002
 chl2c          22   3.7613353106285476E-002   3.7613353106285476E-002  0.64616892500000001        2.3168612742830775E-004   3.6999964000134973E-006
 chl          22   3.2822609343265839E-005   8.7263183504320268E-004   3.7613353106285476E-002
 chl2c          23   3.2286562315070731E-002   3.2286562315070731E-002  0.41564179999999995        1.3530441334752710E-004   9.5892618048801042E-017
 chl          23   2.8174282120236886E-005   8.7263183504320268E-004   3.2286562315070731E-002
 chl2c          24   3.7348402796863071E-002   3.7348402796863071E-002  0.57597492500000003        2.3168612742830775E-004   1.1888641306550981E-016
 chl          24   3.2591405268559305E-005   8.7263183504320268E-004   3.7348402796863071E-002
 chl2c          25   4.5426679235459781E-002   4.5426679235459781E-002  0.31406487500000002        8.8723044122316732E-005   7.6194945319493581E-017
 chl          25   3.9640766461158220E-005   8.7263183504320268E-004   4.5426679235459781E-002
 chl2c          26   4.7955660680174553E-002   4.7955660680174553E-002  0.49427735000000000        8.8723044122316732E-005   7.0044891539018256E-017
 chl          26   4.1847636180049878E-005   8.7263183504320268E-004   4.7955660680174553E-002
 chl2c          27   4.5333133499525620E-002   4.5333133499525620E-002  0.30964730000000001        8.8723044122316732E-005   7.9927849982715951E-017
 chl          27   3.9559135473949528E-005   8.7263183504320268E-004   4.5333133499525620E-002
 chl2c          28   3.1209236063453518E-002   3.1209236063453518E-002  0.28776342500000002        1.3530441334752710E-004   7.9491633542986542E-017
 chl          28   2.7234172936347941E-005   8.7263183504320268E-004   3.1209236063453518E-002
 chl2c          29   3.7743217595736761E-002   3.7743217595736761E-002  0.68676297499999994        2.3168612742830775E-004   3.4506136193577943E-006
 chl          29   3.2935933231002664E-005   8.7263183504320268E-004   3.7743217595736761E-002
 chl2c          30   2.5380056985171612E-002   2.5380056985171612E-002  0.38930277499999999        1.3336640850077341E-004   1.6738206195325376E-016
 chl          30   2.2147445700471359E-005   8.7263183504320268E-004   2.5380056985171612E-002
 chl2c          31   3.7576959810037038E-002   3.7576959810037038E-002  0.63559385000000002        2.3168612742830775E-004   3.6428058168131355E-006
 chl          31   3.2790851394377298E-005   8.7263183504320268E-004   3.7576959810037038E-002
 chl2c          32   2.8557727320299556E-002   2.0893126428578448E-002  0.24722667500000001        2.3168612742830775E-004   3.7402608405376853E-006
 chl          32   2.4920381996176405E-005   8.7263183504320268E-004   2.8557727320299556E-002
 chl2c          33   3.7458922634011876E-002   3.7458922634011876E-002  0.60343137499999999        2.3168612742830775E-004   1.4862950036291676E-006
 chl          33   3.2687848396859141E-005   8.7263183504320268E-004   3.7458922634011876E-002
 chl2c          34   3.6991692130264084E-002   2.5350269098008315E-002  0.38241020000000003        1.3336640850077341E-004   2.7308919804984405E-006
 chl          34   3.2280128184985544E-005   8.7263183504320268E-004   3.6991692130264084E-002
 chl2c          35   2.5740370148566064E-002   2.5740370148566064E-002  0.49574644999999995        1.3336640850077341E-004   1.2121357558907530E-016
 chl          35   2.2461866437434481E-005   8.7263183504320268E-004   2.5740370148566064E-002
 chl2c          36   3.7770393924465726E-002   3.7770393924465726E-002  0.69587337500000002        2.3168612742830775E-004   1.2664281079252086E-016
 chl          36   3.2959648160611162E-005   8.7263183504320268E-004   3.7770393924465726E-002
 chl2c          37   2.1353674699533250E-002   2.1353674699533250E-002  0.33194060000000003        2.3168612742830775E-004   1.1105623577913350E-016
 chl          37   1.8633896337969311E-005   8.7263183504320268E-004   2.1353674699533250E-002
 chl2c          38   2.1543295686358745E-002   2.1543295686358745E-002  0.38455722500000000        2.3168612742830775E-004   1.7081856119128683E-016
 chl          38   1.8799365647665545E-005   8.7263183504320268E-004   2.1543295686358745E-002
 chl2c          39   2.5670077108751441E-002   2.5670077108751441E-002  0.47091117500000002        1.3336640850077341E-004   1.3778768946524937E-016
 chl          39   2.2400526493110281E-005   8.7263183504320268E-004   2.5670077108751441E-002
 chl2c          40   3.7687445774703773E-002   3.7687445774703773E-002  0.66875547499999999        2.3168612742830775E-004   1.6644709428084097E-016
 chl          40   3.2887264964470949E-005   8.7263183504320268E-004   3.7687445774703773E-002
 chl2c          41   2.5582381488167241E-002   2.5582381488167241E-002  0.44304987499999998        1.3336640850077341E-004   1.0007455489028861E-016
 chl          41   2.2324000502794636E-005   8.7263183504320268E-004   2.5582381488167241E-002
 chl2c          42   3.7949995630725070E-002   3.7949995630725070E-002  0.76234377499999995        2.3168612742830775E-004   1.4054432497997878E-016
 chl          42   3.3116374327121138E-005   8.7263183504320268E-004   3.7949995630725070E-002
 chl2c          43   2.1185090152268007E-002   2.1185090152268007E-002  0.29539925000000000        2.3168612742830775E-004   1.7009434688558008E-016
 chl          43   1.8486784095129312E-005   8.7263183504320268E-004   2.1185090152268007E-002
 chl2c          44   3.7536352708156646E-002   3.7536352708156646E-002  0.62417262500000004        2.3168612742830775E-004   1.2016525846363876E-016
 chl          44   3.2755416344547624E-005   8.7263183504320268E-004   3.7536352708156646E-002
 chl2c          45   4.6544927192009838E-002   4.6544927192009838E-002  0.37662252499999999        8.8723044122316732E-005   1.5790159726839920E-006
 chl          45   4.0616585227515807E-005   8.7263183504320268E-004   4.6544927192009838E-002
 chl2c          46   3.7083195475449568E-002   3.7083195475449568E-002  0.51876034999999998        2.3168612742830775E-004   3.6919163910223160E-006
 chl          46   3.2359976917007345E-005   8.7263183504320268E-004   3.7083195475449568E-002
 chl2c          47   3.7519784612651236E-002   3.7519784612651236E-002  0.61962282499999999        2.3168612742830775E-004   1.5325636005597864E-016
 chl          47   3.2740958496963570E-005   8.7263183504320268E-004   3.7519784612651236E-002
 chl2c          48   3.7823212136301673E-002   3.7823212136301673E-002  0.71424949999999998        2.3168612742830775E-004   1.4742348398542563E-016
 chl          48   3.3005739013729260E-005   8.7263183504320268E-004   3.7823212136301673E-002
 chl2c          49   3.7152990741888416E-002   3.7152990741888416E-002  0.53276120000000005        2.3168612742830775E-004   1.3725136669409167E-016
 chl          49   3.2420882488437210E-005   8.7263183504320268E-004   3.7152990741888416E-002
 chl2c          50   2.1533072915600981E-002   2.1533072915600981E-002  0.38132569999999999        2.3168612742830775E-004   1.8929850257723608E-006
 chl          50   1.8790444932459970E-005   8.7263183504320268E-004   2.1533072915600981E-002
 chl2c          51   2.0700971146093840E-002   2.0700971146093840E-002  0.22275920000000002        2.3168612742830775E-004   1.8143129009182951E-016
 chl          51   1.8064326438392260E-005   8.7263183504320268E-004   2.0700971146093840E-002
 chl2c          52   3.7581825176985564E-002   3.7581825176985564E-002  0.63698869999999996        2.3168612742830775E-004   1.6304006782262088E-016
 chl          52   3.2795097068465747E-005   8.7263183504320268E-004   3.7581825176985564E-002
 chl2c          53   3.7925801262726190E-002   3.7925801262726190E-002  0.75269794999999995        2.3168612742830775E-004   1.4610454113271302E-016
 chl          53   3.3095261551376566E-005   8.7263183504320268E-004   3.7925801262726190E-002
 chl2c          54   3.7082433371327092E-002   3.7082433371327092E-002  0.51861124999999997        2.3168612742830775E-004   1.1997313476453314E-016
 chl          54   3.2359311880688457E-005   8.7263183504320268E-004   3.7082433371327092E-002
 chl2c          55   3.7357235588660491E-002   3.7357235588660491E-002  0.57808280000000001        2.3168612742830775E-004   3.7441864906500402E-006
 chl          55   3.2599113043874043E-005   8.7263183504320268E-004   3.7357235588660491E-002
 chl2c          56   3.7507394187257688E-002   3.7507394187257688E-002  0.61626080000000005        2.3168612742830775E-004   1.6346820734622505E-016
 chl          56   3.2730146217315430E-005   8.7263183504320268E-004   3.7507394187257688E-002
 chl2c          57   3.7727617852646313E-002   3.7727617852646313E-002  0.68163462500000005        2.3168612742830775E-004   3.7357021724429029E-006
 chl          57   3.2922320398563448E-005   8.7263183504320268E-004   3.7727617852646313E-002
 chl2c          58   3.7765358178394853E-002   3.7765358178394853E-002  0.69416802499999997        2.3168612742830775E-004   9.1553300927317464E-007
 chl          58   3.2955253808276525E-005   8.7263183504320268E-004   3.7765358178394853E-002
 chl2c          59   3.7173699120809672E-002   3.7173699120809672E-002  0.53705127500000005        2.3168612742830775E-004   1.6626586794118865E-016
 chl          59   3.2438953279136032E-005   8.7263183504320268E-004   3.7173699120809672E-002
 chl2c          60   3.7607757740906807E-002   3.7607757740906807E-002  0.64452155000000000        2.3168612742830775E-004   3.6163852324044369E-007
 chl          60   3.2817726649307716E-005   8.7263183504320268E-004   3.7607757740906807E-002
 chl2c          61   3.7805373434125003E-002   3.7805373434125003E-002  0.70794139999999994        2.3168612742830775E-004   1.4300942495089495E-016
 chl          61   3.2990172394314049E-005   8.7263183504320268E-004   3.7805373434125003E-002
 chl2c          62   3.7956103087269030E-002   3.7956103087269030E-002  0.76481592499999995        2.3168612742830775E-004   1.1683528836660103E-016
 chl          62   3.3121703888132544E-005   8.7263183504320268E-004   3.7956103087269030E-002
 chl2c          63   3.7855601011927406E-002   3.7855601011927406E-002  0.72597904999999996        2.3168612742830775E-004   1.9147993091908583E-006
 chl          63   3.3034002577701530E-005   8.7263183504320268E-004   3.7855601011927406E-002
 chl2c          64   2.5708982294816416E-002   2.5708982294816416E-002  0.48435739999999999        1.3336640850077341E-004   9.7384743256189628E-017
 chl          64   2.2434476397018858E-005   8.7263183504320268E-004   2.5708982294816416E-002
 chl2c          65   3.7953597170552002E-002   3.7953597170552002E-002  0.76379975000000000        2.3168612742830775E-004   1.2903061740900126E-016
 chl          65   3.3119517145429296E-005   8.7263183504320268E-004   3.7953597170552002E-002
 chl2c          66   3.1840477731474713E-002   3.1840477731474713E-002  0.35213202499999996        1.3530441334752710E-004   7.5804926874208669E-017
 chl          66   2.7785014511469011E-005   8.7263183504320268E-004   3.1840477731474713E-002
 chl2c          67   3.7937587124568600E-002   3.7937587124568600E-002  0.75736760000000003        2.3168612742830775E-004   1.3647506239369032E-016
 chl          67   3.3105546269623675E-005   8.7263183504320268E-004   3.7937587124568600E-002
 chl2c          68   3.7855407263856986E-002   3.7855407263856986E-002  0.72590779999999999        2.3168612742830775E-004   5.8876512335323591E-007
 chl          68   3.3033833506967304E-005   8.7263183504320268E-004   3.7855407263856986E-002
 chl2c          69   2.3525316562298452E-002   2.1732330561541505E-002  0.45524217500000003        2.3168612742830775E-004   2.8737500541509500E-006
 chl          69   2.0528940161730745E-005   8.7263183504320268E-004   2.3525316562298452E-002
 chl2c          70   3.2658010878182209E-002   3.2658010878182209E-002  0.48694062500000002        1.3530441334752710E-004   9.5535249425724533E-017
 chl          70   2.8498419961489016E-005   8.7263183504320268E-004   3.2658010878182209E-002
 chl2c          71   4.3481058864416305E-002   4.3481058864416305E-002  0.23986107500000001        8.8723044122316732E-005   8.3417295163182314E-017
 chl          71   3.7942956186477114E-005   8.7263183504320268E-004   4.3481058864416305E-002
 chl2c          72   3.7549776402781669E-002   3.7549776402781669E-002  0.62790522500000001        2.3168612742830775E-004   1.6398067754449898E-016
 chl          72   3.2767130287821317E-005   8.7263183504320268E-004   3.7549776402781669E-002
 chl2c          73   3.1852614277819484E-002   3.1852614277819484E-002  0.35362212500000001        1.3530441334752710E-004   9.1970698575576756E-017
 chl          73   2.7795605248176936E-005   8.7263183504320268E-004   3.1852614277819484E-002
 chl2c          74   3.7616827685877569E-002   3.7616827685877569E-002  0.64719590000000005        2.3168612742830775E-004   3.9657526005660994E-007
 chl          74   3.2825641372031295E-005   8.7263183504320268E-004   3.7616827685877569E-002
 chl2c          75   3.7826830779512356E-002   3.7826830779512356E-002  0.71554212500000003        2.3168612742830775E-004   1.2946670056646538E-016
 chl          75   3.3008896756994569E-005   8.7263183504320268E-004   3.7826830779512356E-002
 chl2c          76   3.7257729557919804E-002   3.7257729557919804E-002  0.55513977500000000        2.3168612742830775E-004   3.4664757809243518E-006
 chl          76   3.2512280913670929E-005   8.7263183504320268E-004   3.7257729557919804E-002
 chl2c          77   3.7138172437479272E-002   3.7138172437479272E-002  0.52973029999999999        2.3168612742830775E-004   1.1384003979887906E-016
 chl          77   3.2407951564268431E-005   8.7263183504320268E-004   3.7138172437479272E-002
 chl2c          78   4.7515248899399322E-002   4.7515248899399322E-002  0.45117492500000000        8.8723044122316732E-005   2.3370891701234418E-006
 chl          78   4.1463318839617346E-005   8.7263183504320268E-004   4.7515248899399322E-002
 prod   3.9881774996240271E-007   186.15258712301335        10.000000000000000     
 chl2c           1   3.7477407714772232E-002   3.7477407714772232E-002  0.60826437499999997        1.9472737364751542E-004   1.4505741607913564E-016
 chl           1   3.3037534155203300E-005   8.8153199940189855E-004   3.7477407714772232E-002
 chl2c           2   3.2640259920490348E-002   3.2640259920490348E-002  0.48302390000000001        1.1598129988563255E-004   1.7004080732541961E-006
 chl           2   2.8773433588707510E-005   8.8153199940189855E-004   3.2640259920490348E-002
 chl2c           3   3.7922212503796585E-002   3.7922212503796585E-002  0.75128689999999998        1.9472737364751542E-004   1.5638507254765655E-016
 chl           3   3.3429643810215481E-005   8.8153199940189855E-004   3.7922212503796585E-002
 chl2c           4   3.7976509103863923E-002   3.7976509103863923E-002  0.77318742499999993        1.9472737364751542E-004   2.8645164086664117E-006
 chl           4   3.3477508000633568E-005   8.8153199940189855E-004   3.7976509103863923E-002
 chl2c           5   4.6155553516704341E-002   2.5710500362372445E-002  0.48489679999999996        1.0786842024632518E-004   2.7512441978389376E-006
 chl           5   4.0687597375081705E-005   8.8153199940189855E-004   4.6155553516704341E-002
 chl2c           6   3.1261039902252048E-002   3.1261039902252048E-002  0.29222855000000003        1.1598129988563255E-004   1.0156448852533196E-016
 chl           6   2.7557607008414779E-005   8.8153199940189855E-004   3.1261039902252048E-002
 chl2c           7   4.3064391842467263E-002   4.3064391842467263E-002  0.22770740000000000        7.6821611413253578E-005   1.5052849255386520E-006
 chl           7   3.7962639443916979E-005   8.8153199940189855E-004   4.3064391842467263E-002
 chl2c           8   4.7969800906495587E-002   4.7969800906495587E-002  0.49578364999999996        7.6821611413253578E-005   7.3064914033003690E-017
 chl           8   4.2286914504014062E-005   8.8153199940189855E-004   4.7969800906495587E-002
 chl2c           9   2.4803669054600401E-002   2.4803669054600401E-002  0.28700202499999999        1.0786842024632518E-004   5.3098890947171390E-007
 chl           9   2.1865227974204891E-005   8.8153199940189855E-004   2.4803669054600401E-002
 chl2c          10   5.3540813690634473E-002   2.5387016219684602E-002  0.39094662499999999        1.0786842024632518E-004   3.3459095753557281E-006
 chl          10   4.7197940542309552E-005   8.8153199940189855E-004   5.3540813690634473E-002
 chl2c          11   2.1820572217820047E-002   2.1820572217820047E-002  0.49737575000000001        1.9472737364751542E-004   1.4375203482436224E-016
 chl          11   1.9235532655268425E-005   8.8153199940189855E-004   2.1820572217820047E-002
 chl2c          12   4.5290941298723353E-002   4.5290941298723353E-002  0.30768942500000002        7.6821611413253578E-005   7.2442874266711868E-017
 chl          12   3.9925414037857616E-005   8.8153199940189855E-004   4.5290941298723353E-002
 chl2c          13   3.7935816987997487E-002   3.7935816987997487E-002  0.75666275000000005        1.9472737364751542E-004   1.3014061806556783E-016
 chl          13   3.3441636598373930E-005   8.8153199940189855E-004   3.7935816987997487E-002
 chl2c          14   4.6856526101924839E-002   4.6856526101924839E-002  0.39804095000000000        7.6821611413253578E-005   8.0441735128769133E-017
 chl          14   4.1305527139657051E-005   8.8153199940189855E-004   4.6856526101924839E-002
 chl2c          15   3.4192433405240294E-002   2.0954299823745293E-002  0.25607262500000000        1.9472737364751542E-004   3.8421263411558149E-006
 chl          15   3.0141724184137741E-005   8.8153199940189855E-004   3.4192433405240294E-002
 chl2c          16   3.7823443882273475E-002   3.7823443882273475E-002  0.71433214999999994        1.9472737364751542E-004   1.6277451631366416E-016
 chl          16   3.3342576109806047E-005   8.8153199940189855E-004   3.7823443882273475E-002
 chl2c          17   3.7542254757581245E-002   3.7542254757581245E-002  0.62580860000000005        1.9472737364751542E-004   1.6269339660746689E-016
 chl          17   3.3094698898506029E-005   8.8153199940189855E-004   3.7542254757581245E-002
 chl2c          18   2.5694475239060960E-002   2.5694475239060960E-002  0.47925950000000000        1.0786842024632518E-004   1.5002765884818375E-016
 chl          18   2.2650502131071984E-005   8.8153199940189855E-004   2.5694475239060960E-002
 chl2c          19   3.7570220750293731E-002   3.7570220750293731E-002  0.63367130000000005        1.9472737364751542E-004   1.3373487978821232E-006
 chl          19   3.3119351815977127E-005   8.8153199940189855E-004   3.7570220750293731E-002
 chl2c          20   3.7020645196759419E-002   3.7020645196759419E-002  0.50678202500000002        1.9472737364751542E-004   1.4325220592306807E-016
 chl          20   3.2634883379447621E-005   8.8153199940189855E-004   3.7020645196759419E-002
 chl2c          21   3.7838475073783531E-002   3.7838475073783531E-002  0.71973185000000006        1.9472737364751542E-004   4.5685085231302773E-007
 chl          21   3.3355826586111300E-005   8.8153199940189855E-004   3.7838475073783531E-002
 chl2c          22   3.7613353106285476E-002   3.7613353106285476E-002  0.64616892500000001        1.9472737364751542E-004   3.6409656089767905E-006
 chl          22   3.3157374367993448E-005   8.8153199940189855E-004   3.7613353106285476E-002
 chl2c          23   3.2286562315070731E-002   3.2286562315070731E-002  0.41564179999999995        1.1598129988563255E-004   9.5809932274793398E-017
 chl          23   2.8461637831418291E-005   8.8153199940189855E-004   3.2286562315070731E-002
 chl2c          24   3.7348402796863071E-002   3.7348402796863071E-002  0.57597492500000003        1.9472737364751542E-004   1.1637818417426713E-016
 chl          24   3.2923812191986161E-005   8.8153199940189855E-004   3.7348402796863071E-002
 chl2c          25   4.5426679235459781E-002   4.5426679235459781E-002  0.31406487500000002        7.6821611413253578E-005   7.6126404192683729E-017
 chl          25   4.0045071372623571E-005   8.8153199940189855E-004   4.5426679235459781E-002
 chl2c          26   4.7955660680174553E-002   4.7955660680174553E-002  0.49427735000000000        7.6821611413253578E-005   6.9981067544263254E-017
 chl          26   4.2274449442033282E-005   8.8153199940189855E-004   4.7955660680174553E-002
 chl2c          27   4.5333133499525620E-002   4.5333133499525620E-002  0.30964730000000001        7.6821611413253578E-005   7.9830659710484608E-017
 chl          27   3.9962607812990004E-005   8.8153199940189855E-004   4.5333133499525620E-002
 chl2c          28   3.1209236063453518E-002   3.1209236063453518E-002  0.28776342500000002        1.1598129988563255E-004   7.9394933258463463E-017
 chl          28   2.7511940266822019E-005   8.8153199940189855E-004   3.1209236063453518E-002
 chl2c          29   3.7743217595736761E-002   3.7743217595736761E-002  0.68676297499999994        1.9472737364751542E-004   3.3244838587657320E-006
 chl          29   3.3271854071030743E-005   8.8153199940189855E-004   3.7743217595736761E-002
 chl2c          30   2.5380056985171612E-002   2.5380056985171612E-002  0.38930277499999999        1.0786842024632518E-004   1.6439602870254853E-016
 chl          30   2.2373332379072454E-005   8.8153199940189855E-004   2.5380056985171612E-002
 chl2c          31   3.7576959810037038E-002   3.7576959810037038E-002  0.63559385000000002        1.9472737364751542E-004   3.4713683779152766E-006
 chl          31   3.3125292512786737E-005   8.8153199940189855E-004   3.7576959810037038E-002
 chl2c          32   3.3489282606420472E-002   2.0893126428578448E-002  0.24722667500000001        1.9472737364751542E-004   3.7715309538959400E-006
 chl          32   2.9521874254573064E-005   8.8153199940189855E-004   3.3489282606420472E-002
 chl2c          33   3.7458922634011876E-002   3.7458922634011876E-002  0.60343137499999999        1.9472737364751542E-004   1.6643723617476856E-006
 chl          33   3.3021238965001522E-005   8.8153199940189855E-004   3.7458922634011876E-002
 chl2c          34   4.2553949902689139E-002   2.5350269098008315E-002  0.38241020000000003        1.0786842024632518E-004   2.5824885652863680E-006
 chl          34   3.7512668540165782E-005   8.8153199940189855E-004   4.2553949902689139E-002
 chl2c          35   2.5740370148566064E-002   2.5740370148566064E-002  0.49574644999999995        1.0786842024632518E-004   1.1887156143334684E-016
 chl          35   2.2690959962410386E-005   8.8153199940189855E-004   2.5740370148566064E-002
 chl2c          36   3.7770393924465726E-002   3.7770393924465726E-002  0.69587337500000002        1.9472737364751542E-004   1.2398999025281690E-016
 chl          36   3.3295810874431591E-005   8.8153199940189855E-004   3.7770393924465726E-002
 chl2c          37   2.1353674699533250E-002   2.1353674699533250E-002  0.33194060000000003        1.9472737364751542E-004   1.0887346871627782E-016
 chl          37   1.8823947552457280E-005   8.8153199940189855E-004   2.1353674699533250E-002
 chl2c          38   2.1543295686358745E-002   2.1543295686358745E-002  0.38455722500000000        1.9472737364751542E-004   1.6778969000653847E-016
 chl          38   1.8991104520102119E-005   8.8153199940189855E-004   2.1543295686358745E-002
 chl2c          39   2.5670077108751441E-002   2.5670077108751441E-002  0.47091117500000002        1.0786842024632518E-004   1.3519959377799887E-016
 chl          39   2.2628994398478566E-005   8.8153199940189855E-004   2.5670077108751441E-002
 chl2c          40   3.7687445774703773E-002   3.7687445774703773E-002  0.66875547499999999        1.9472737364751542E-004   1.6308771854021765E-016
 chl          40   3.3222689426125253E-005   8.8153199940189855E-004   3.7687445774703773E-002
 chl2c          41   2.5582381488167241E-002   2.5582381488167241E-002  0.44304987499999998        1.0786842024632518E-004   9.8071285145638280E-017
 chl          41   2.2551687902726184E-005   8.8153199940189855E-004   2.5582381488167241E-002
 chl2c          42   3.7949995630725070E-002   3.7949995630725070E-002  0.76234377499999995        1.9472737364751542E-004   1.3763802917092037E-016
 chl          42   3.3454135525646385E-005   8.8153199940189855E-004   3.7949995630725070E-002
 chl2c          43   2.1185090152268007E-002   2.1185090152268007E-002  0.29539925000000000        1.9472737364751542E-004   1.6707444595839817E-016
 chl          43   1.8675334879438287E-005   8.8153199940189855E-004   2.1185090152268007E-002
 chl2c          44   3.7536352708156646E-002   3.7536352708156646E-002  0.62417262500000004        1.9472737364751542E-004   1.1763303313431021E-016
 chl          44   3.3089496053076200E-005   8.8153199940189855E-004   3.7536352708156646E-002
 chl2c          45   4.6544927192009838E-002   4.6544927192009838E-002  0.37662252499999999        7.6821611413253578E-005   1.3490462105504453E-006
 chl          45   4.1030842729588226E-005   8.8153199940189855E-004   4.6544927192009838E-002
 chl2c          46   3.7083195475449568E-002   3.7083195475449568E-002  0.51876034999999998        1.9472737364751542E-004   3.5488316472811179E-006
 chl          46   3.2690023451684497E-005   8.8153199940189855E-004   3.7083195475449568E-002
 chl2c          47   3.7519784612651236E-002   3.7519784612651236E-002  0.61962282499999999        1.9472737364751542E-004   1.5012460294490118E-016
 chl          47   3.3074890746719028E-005   8.8153199940189855E-004   3.7519784612651236E-002
 chl2c          48   3.7823212136301673E-002   3.7823212136301673E-002  0.71424949999999998        1.9472737364751542E-004   1.4439443222899256E-016
 chl          48   3.3342371818316167E-005   8.8153199940189855E-004   3.7823212136301673E-002
 chl2c          49   3.7152990741888416E-002   3.7152990741888416E-002  0.53276120000000005        1.9472737364751542E-004   1.3440445809360433E-016
 chl          49   3.2751550212457124E-005   8.8153199940189855E-004   3.7152990741888416E-002
 chl2c          50   2.1533072915600981E-002   2.1533072915600981E-002  0.38132569999999999        1.9472737364751542E-004   2.1213861703268278E-006
 chl          50   1.8982092820556602E-005   8.8153199940189855E-004   2.1533072915600981E-002
 chl2c          51   2.0700971146093840E-002   2.0700971146093840E-002  0.22275920000000002        1.9472737364751542E-004   1.7827446647150065E-016
 chl          51   1.8248568483977115E-005   8.8153199940189855E-004   2.0700971146093840E-002
 chl2c          52   3.7581825176985564E-002   3.7581825176985564E-002  0.63698869999999996        1.9472737364751542E-004   1.5973886879756665E-016
 chl          52   3.3129581489440692E-005   8.8153199940189855E-004   3.7581825176985564E-002
 chl2c          53   3.7925801262726190E-002   3.7925801262726190E-002  0.75269794999999995        1.9472737364751542E-004   1.4309888869367555E-016
 chl          53   3.3432807416050070E-005   8.8153199940189855E-004   3.7925801262726190E-002
 chl2c          54   3.7082433371327092E-002   3.7082433371327092E-002  0.51861124999999997        1.9472737364751542E-004   1.1744451051630669E-016
 chl          54   3.2689351632513659E-005   8.8153199940189855E-004   3.7082433371327092E-002
 chl2c          55   3.7357235588660491E-002   3.7357235588660491E-002  0.57808280000000001        1.9472737364751542E-004   3.6630861991813207E-006
 chl          55   3.2931598580599645E-005   8.8153199940189855E-004   3.7357235588660491E-002
 chl2c          56   3.7507394187257688E-002   3.7507394187257688E-002  0.61626080000000005        1.9472737364751542E-004   1.6015967415231626E-016
 chl          56   3.3063968190248418E-005   8.8153199940189855E-004   3.7507394187257688E-002
 chl2c          57   3.7727617852646313E-002   3.7727617852646313E-002  0.68163462500000005        1.9472737364751542E-004   3.5013941855816982E-006
 chl          57   3.3258102398314063E-005   8.8153199940189855E-004   3.7727617852646313E-002
 chl2c          58   3.7765358178394853E-002   3.7765358178394853E-002  0.69416802499999997        1.9472737364751542E-004   1.1719547966062108E-006
 chl          58   3.3291371703129258E-005   8.8153199940189855E-004   3.7765358178394853E-002
 chl2c          59   3.7173699120809672E-002   3.7173699120809672E-002  0.53705127500000005        1.9472737364751542E-004   1.6290957598242792E-016
 chl          59   3.2769805311131945E-005   8.8153199940189855E-004   3.7173699120809672E-002
 chl2c          60   3.7607757740906807E-002   3.7607757740906807E-002  0.64452155000000000        1.9472737364751542E-004   5.3668169854019926E-007
 chl          60   3.3152441874363804E-005   8.8153199940189855E-004   3.7607757740906807E-002
 chl2c          61   3.7805373434125003E-002   3.7805373434125003E-002  0.70794139999999994        1.9472737364751542E-004   1.4005893740183405E-016
 chl          61   3.3326646431519633E-005   8.8153199940189855E-004   3.7805373434125003E-002
 chl2c          62   3.7956103087269030E-002   3.7956103087269030E-002  0.76481592499999995        1.9472737364751542E-004   1.1436567655848005E-016
 chl          62   3.3459519444024841E-005   8.8153199940189855E-004   3.7956103087269030E-002
 chl2c          63   3.7855601011927406E-002   3.7855601011927406E-002  0.72597904999999996        1.9472737364751542E-004   2.0289344115786960E-006
 chl          63   3.3370923648604900E-005   8.8153199940189855E-004   3.7855601011927406E-002
 chl2c          64   2.5708982294816416E-002   2.5708982294816416E-002  0.48435739999999999        1.0786842024632518E-004   9.5426610606124048E-017
 chl          64   2.2663290564937524E-005   8.8153199940189855E-004   2.5708982294816416E-002
 chl2c          65   3.7953597170552002E-002   3.7953597170552002E-002  0.76379975000000000        1.9472737364751542E-004   1.2633374172307302E-016
 chl          65   3.3457310398250948E-005   8.8153199940189855E-004   3.7953597170552002E-002
 chl2c          66   3.1840477731474713E-002   3.1840477731474713E-002  0.35213202499999996        1.1598129988563255E-004   7.5736680642532044E-017
 chl          66   2.8068399996538529E-005   8.8153199940189855E-004   3.1840477731474713E-002
 chl2c          67   3.7937587124568600E-002   3.7937587124568600E-002  0.75736760000000003        1.9472737364751542E-004   1.3364221327919599E-016
 chl          67   3.3443197030404678E-005   8.8153199940189855E-004   3.7937587124568600E-002
 chl2c          68   3.7855407263856986E-002   3.7855407263856986E-002  0.72590779999999999        1.9472737364751542E-004   8.4152727389142758E-007
 chl          68   3.3370752853481000E-005   8.8153199940189855E-004   3.7855407263856986E-002
 chl2c          69   2.6798779827145552E-002   2.1732330561541505E-002  0.45524217500000003        1.9472737364751542E-004   2.7724330589855899E-006
 chl          69   2.3623981962554883E-005   8.8153199940189855E-004   2.6798779827145552E-002
 chl2c          70   3.2658010878182209E-002   3.2658010878182209E-002  0.48694062500000002        1.1598129988563255E-004   9.5420794769871843E-017
 chl          70   2.8789081625932916E-005   8.8153199940189855E-004   3.2658010878182209E-002
 chl2c          71   4.3481058864416305E-002   4.3481058864416305E-002  0.23986107500000001        7.6821611413253578E-005   8.3343397229447993E-017
 chl          71   3.8329944756860551E-005   8.8153199940189855E-004   4.3481058864416305E-002
 chl2c          72   3.7549776402781669E-002   3.7549776402781669E-002  0.62790522500000001        1.9472737364751542E-004   1.6066337444463750E-016
 chl          72   3.3101329469438352E-005   8.8153199940189855E-004   3.7549776402781669E-002
 chl2c          73   3.1852614277819484E-002   3.1852614277819484E-002  0.35362212500000001        1.1598129988563255E-004   9.1890711979489195E-017
 chl          73   2.8079098750503671E-005   8.8153199940189855E-004   3.1852614277819484E-002
 chl2c          74   3.7616827685877569E-002   3.7616827685877569E-002  0.64719590000000005        1.9472737364751542E-004   6.0595166674123451E-007
 chl          74   3.3160437321088347E-005   8.8153199940189855E-004   3.7616827685877569E-002
 chl2c          75   3.7826830779512356E-002   3.7826830779512356E-002  0.71554212500000003        1.9472737364751542E-004   1.2676180232604124E-016
 chl          75   3.3345561768100801E-005   8.8153199940189855E-004   3.7826830779512356E-002
 chl2c          76   3.7257729557919804E-002   3.7257729557919804E-002  0.55513977500000000        1.9472737364751542E-004   3.3465641493045246E-006
 chl          76   3.2843880830368256E-005   8.8153199940189855E-004   3.7257729557919804E-002
 chl2c          77   3.7138172437479272E-002   3.7138172437479272E-002  0.52973029999999999        1.9472737364751542E-004   6.7953627339924070E-009
 chl          77   3.2738487402943584E-005   8.8153199940189855E-004   3.7138172437479272E-002
 chl2c          78   5.1693363721297958E-002   4.7515248899399322E-002  0.45117492500000000        7.6821611413253578E-005   2.2425205226482972E-006
 chl          78   4.5569354277045353E-005   8.8153199940189855E-004   5.1693363721297958E-002
 prod   3.9840149958272426E-007   151.74700098711645        10.000000000000000     
 chl2c           1   3.7477407714772232E-002   3.7477407714772232E-002  0.60826437499999997        1.6482486583529828E-004   1.4212232649225133E-016
 chl           1   3.2676464456464063E-005   8.7189766979491989E-004   3.7477407714772232E-002
 chl2c           2   3.2640259920490348E-002   3.2640259920490348E-002  0.48302390000000001        9.9883599566653953E-005   1.6890894347461726E-006
 chl           2   2.8458966566176053E-005   8.7189766979491989E-004   3.2640259920490348E-002
 chl2c           3   3.7922212503796585E-002   3.7922212503796585E-002  0.75128689999999998        1.6482486583529828E-004   1.5326233261378081E-016
 chl           3   3.3064288715528014E-005   8.7189766979491989E-004   3.7922212503796585E-002
 chl2c           4   3.7976509103863923E-002   3.7976509103863923E-002  0.77318742499999993        1.6482486583529828E-004   3.0074746867968791E-006
 chl           4   3.3111629794604517E-005   8.7189766979491989E-004   3.7976509103863923E-002
 chl2c           5   5.2698261731903090E-002   2.5710500362372445E-002  0.48489679999999996        8.9152727120302665E-005   2.6355238535338451E-006
 chl           5   4.5947491606289103E-005   8.7189766979491989E-004   5.2698261731903090E-002
 chl2c           6   3.1261039902252048E-002   3.1261039902252048E-002  0.29222855000000003        9.9883599566653953E-005   1.0327858918498802E-016
 chl           6   2.7256427846139571E-005   8.7189766979491989E-004   3.1261039902252048E-002
 chl2c           7   4.3064391842467263E-002   4.3064391842467263E-002  0.22770740000000000        6.6734359016436780E-005   1.5764822308224383E-006
 chl           7   3.7547742898582561E-005   8.7189766979491989E-004   4.3064391842467263E-002
 chl2c           8   4.7969800906495587E-002   4.7969800906495587E-002  0.49578364999999996        6.6734359016436780E-005   7.4435582029314458E-017
 chl           8   4.1824757630899740E-005   8.7189766979491989E-004   4.7969800906495587E-002
 chl2c           9   2.4803669054600401E-002   2.4803669054600401E-002  0.28700202499999999        8.9152727120302665E-005   8.8412562716328056E-007
 chl           9   2.1626261251070452E-005   8.7189766979491989E-004   2.4803669054600401E-002
 chl2c          10   6.1034529693387927E-002   2.5387016219684602E-002  0.39094662499999999        8.9152727120302665E-005   3.2240329335444257E-006
 chl          10   5.3215864216693777E-005   8.7189766979491989E-004   6.1034529693387927E-002
 chl2c          11   2.1820572217820047E-002   2.1820572217820047E-002  0.49737575000000001        1.6482486583529828E-004   1.4119341127767924E-016
 chl          11   1.9025306070309066E-005   8.7189766979491989E-004   2.1820572217820047E-002
 chl2c          12   4.5290941298723353E-002   4.5290941298723353E-002  0.30768942500000002        6.6734359016436780E-005   7.3803674481572843E-017
 chl          12   3.9489066181175395E-005   8.7189766979491989E-004   4.5290941298723353E-002
 chl2c          13   3.7935816987997487E-002   3.7935816987997487E-002  0.75666275000000005        1.6482486583529828E-004   1.2746150744028129E-016
 chl          13   3.3076150433601543E-005   8.7189766979491989E-004   3.7935816987997487E-002
 chl2c          14   4.6856526101924839E-002   4.6856526101924839E-002  0.39804095000000000        6.6734359016436780E-005   8.1860782641471832E-017
 chl          14   4.0854095922953105E-005   8.7189766979491989E-004   4.6856526101924839E-002
 chl2c          15   3.8251421939992626E-002   2.0954299823745293E-002  0.25607262500000000        1.6482486583529828E-004   3.7059821257487157E-006
 chl          15   3.3351325655821848E-005   8.7189766979491989E-004   3.8251421939992626E-002
 chl2c          16   3.7823443882273475E-002   3.7823443882273475E-002  0.71433214999999994        1.6482486583529828E-004   1.5954847312878740E-016
 chl          16   3.2978172584573160E-005   8.7189766979491989E-004   3.7823443882273475E-002
 chl2c          17   3.7542254757581245E-002   3.7542254757581245E-002  0.62580860000000005        1.6482486583529828E-004   1.5946865351472783E-016
 chl          17   3.2733004441982331E-005   8.7189766979491989E-004   3.7542254757581245E-002
 chl2c          18   2.5694475239060960E-002   2.5694475239060960E-002  0.47925950000000000        8.9152727120302665E-005   1.4739377671915483E-016
 chl          18   2.2402953087540517E-005   8.7189766979491989E-004   2.5694475239060960E-002
 chl2c          19   3.7570220750293731E-002   3.7570220750293731E-002  0.63367130000000005        1.6482486583529828E-004   1.5331586337432845E-006
 chl          19   3.2757387925861849E-005   8.7189766979491989E-004   3.7570220750293731E-002
 chl2c          20   3.7020645196759419E-002   3.7020645196759419E-002  0.50678202500000002        1.6482486583529828E-004   1.4034755620092028E-016
 chl          20   3.2278214281359033E-005   8.7189766979491989E-004   3.7020645196759419E-002
 chl2c          21   3.7838475073783531E-002   3.7838475073783531E-002  0.71973185000000006        1.6482486583529828E-004   6.9301485869410737E-007
 chl          21   3.2991278245425022E-005   8.7189766979491989E-004   3.7838475073783531E-002
 chl2c          22   4.0495470661126923E-002   3.7613353106285476E-002  0.64616892500000001        1.6482486583529828E-004   3.5604649511911491E-006
 chl          22   3.5307906506685105E-005   8.7189766979491989E-004   4.0495470661126923E-002
 chl2c          23   3.2286562315070731E-002   3.2286562315070731E-002  0.41564179999999995        9.9883599566653953E-005   9.7520250806166994E-017
 chl          23   2.8150578448198645E-005   8.7189766979491989E-004   3.2286562315070731E-002
 chl2c          24   3.7348402796863071E-002   3.7348402796863071E-002  0.57597492500000003        1.6482486583529828E-004   1.1394428641649910E-016
 chl          24   3.2563985369146981E-005   8.7189766979491989E-004   3.7348402796863071E-002
 chl2c          25   4.5426679235459781E-002   4.5426679235459781E-002  0.31406487500000002        6.6734359016436780E-005   7.7545188930924942E-017
 chl          25   3.9607415771918659E-005   8.7189766979491989E-004   4.5426679235459781E-002
 chl2c          26   4.7955660680174553E-002   4.7955660680174553E-002  0.49427735000000000        6.6734359016436780E-005   7.1302512015211927E-017
 chl          26   4.1812428800520054E-005   8.7189766979491989E-004   4.7955660680174553E-002
 chl2c          27   4.5333133499525620E-002   4.5333133499525620E-002  0.30964730000000001        6.6734359016436780E-005   8.1240699003324129E-017
 chl          27   3.9525853462738407E-005   8.7189766979491989E-004   4.5333133499525620E-002
 chl2c          28   3.1209236063453518E-002   3.1209236063453518E-002  0.28776342500000002        9.9883599566653953E-005   8.0798532947634912E-017
 chl          28   2.7211260199804700E-005   8.7189766979491989E-004   3.1209236063453518E-002
 chl2c          29   3.7743217595736761E-002   3.7743217595736761E-002  0.68676297499999994        1.6482486583529828E-004   3.1948921169840552E-006
 chl          29   3.2908223472285501E-005   8.7189766979491989E-004   3.7743217595736761E-002
 chl2c          30   2.5380056985171612E-002   2.5380056985171612E-002  0.38930277499999999        8.9152727120302665E-005   1.6160034695570465E-016
 chl          30   2.2128812544633410E-005   8.7189766979491989E-004   2.5380056985171612E-002
 chl2c          31   3.7576959810037038E-002   3.7576959810037038E-002  0.63559385000000002        1.6482486583529828E-004   3.2745696580277956E-006
 chl          31   3.2763263696348650E-005   8.7189766979491989E-004   3.7576959810037038E-002
 chl2c          32   3.8480514556993597E-002   2.0893126428578448E-002  0.24722667500000001        1.6482486583529828E-004   3.7558690146499160E-006
 chl          32   3.3551070974752210E-005   8.7189766979491989E-004   3.8480514556993597E-002
 chl2c          33   3.7458922634011876E-002   3.7458922634011876E-002  0.60343137499999999        1.6482486583529828E-004   1.8403964075182920E-006
 chl          33   3.2660347357623136E-005   8.7189766979491989E-004   3.7458922634011876E-002
 chl2c          34   4.7120090090983675E-002   2.5350269098008315E-002  0.38241020000000003        8.9152727120302665E-005   2.3956285128274661E-006
 chl          34   4.1083896750855362E-005   8.7189766979491989E-004   4.7120090090983675E-002
 chl2c          35   2.5740370148566064E-002   2.5740370148566064E-002  0.49574644999999995        8.9152727120302665E-005   1.1663949981982811E-016
 chl          35   2.2442968752193468E-005   8.7189766979491989E-004   2.5740370148566064E-002
 chl2c          36   3.7770393924465726E-002   3.7770393924465726E-002  0.69587337500000002        1.6482486583529828E-004   1.2141938995322515E-016
 chl          36   3.2931918449977862E-005   8.7189766979491989E-004   3.7770393924465726E-002
 chl2c          37   2.1353674699533250E-002   2.1353674699533250E-002  0.33194060000000003        1.6482486583529828E-004   1.0678560710911926E-016
 chl          37   1.8618219212081776E-005   8.7189766979491989E-004   2.1353674699533250E-002
 chl2c          38   2.1543295686358745E-002   2.1543295686358745E-002  0.38455722500000000        1.6482486583529828E-004   1.6495789822037911E-016
 chl          38   1.8783549308639139E-005   8.7189766979491989E-004   2.1543295686358745E-002
 chl2c          39   2.5670077108751441E-002   2.5670077108751441E-002  0.47091117500000002        8.9152727120302665E-005   1.3274810235618495E-016
 chl          39   2.2381680414576296E-005   8.7189766979491989E-004   2.5670077108751441E-002
 chl2c          40   3.7687445774703773E-002   3.7687445774703773E-002  0.66875547499999999        1.6482486583529828E-004   1.5985665846949724E-016
 chl          40   3.2859596151486620E-005   8.7189766979491989E-004   3.7687445774703773E-002
 chl2c          41   2.5582381488167241E-002   2.5582381488167241E-002  0.44304987499999998        8.9152727120302665E-005   9.6147784728367641E-017
 chl          41   2.2305218807337711E-005   8.7189766979491989E-004   2.5582381488167241E-002
 chl2c          42   3.7949995630725070E-002   3.7949995630725070E-002  0.76234377499999995        1.6482486583529828E-004   1.3482899243643548E-016
 chl          42   3.3088512759156579E-005   8.7189766979491989E-004   3.7949995630725070E-002
 chl2c          43   2.1185090152268007E-002   2.1185090152268007E-002  0.29539925000000000        1.6482486583529828E-004   1.6425019845494659E-016
 chl          43   1.8471230738157781E-005   8.7189766979491989E-004   2.1185090152268007E-002
 chl2c          44   3.7536352708156646E-002   3.7536352708156646E-002  0.62417262500000004        1.6482486583529828E-004   1.1517641476762178E-016
 chl          44   3.2727858458842010E-005   8.7189766979491989E-004   3.7536352708156646E-002
 chl2c          45   4.6544927192009838E-002   4.6544927192009838E-002  0.37662252499999999        6.6734359016436780E-005   1.0845832576425832E-006
 chl          45   4.0582413559487585E-005   8.7189766979491989E-004   4.6544927192009838E-002
 chl2c          46   3.8154638565496071E-002   3.7083195475449568E-002  0.51876034999999998        1.6482486583529828E-004   3.3940475791838154E-006
 chl          46   3.3266940457123408E-005   8.7189766979491989E-004   3.8154638565496071E-002
 chl2c          47   3.7519784612651236E-002   3.7519784612651236E-002  0.61962282499999999        1.6482486583529828E-004   1.4710485700625756E-016
 chl          47   3.2713412774977905E-005   8.7189766979491989E-004   3.7519784612651236E-002
 chl2c          48   3.7823212136301673E-002   3.7823212136301673E-002  0.71424949999999998        1.6482486583529828E-004   1.4147050487003765E-016
 chl          48   3.2977970525800364E-005   8.7189766979491989E-004   3.7823212136301673E-002
 chl2c          49   3.7152990741888416E-002   3.7152990741888416E-002  0.53276120000000005        1.6482486583529828E-004   1.3165114241678496E-016
 chl          49   3.2393606053764743E-005   8.7189766979491989E-004   3.7152990741888416E-002
 chl2c          50   2.6221872766413207E-002   2.1533072915600981E-002  0.38132569999999999        1.6482486583529828E-004   2.3205833085251171E-006
 chl          50   2.2862789762694545E-005   8.7189766979491989E-004   2.6221872766413207E-002
 chl2c          51   2.0700971146093840E-002   2.0700971146093840E-002  0.22275920000000002        1.6482486583529828E-004   1.7533610803984024E-016
 chl          51   1.8049128504771090E-005   8.7189766979491989E-004   2.0700971146093840E-002
 chl2c          52   3.7581825176985564E-002   3.7581825176985564E-002  0.63698869999999996        1.6482486583529828E-004   1.5656167766215383E-016
 chl          52   3.2767505798453766E-005   8.7189766979491989E-004   3.7581825176985564E-002
 chl2c          53   3.7925801262726190E-002   3.7925801262726190E-002  0.75269794999999995        1.6482486583529828E-004   1.4019683104699312E-016
 chl          53   3.3067417746076196E-005   8.7189766979491989E-004   3.7925801262726190E-002
 chl2c          54   3.7082433371327092E-002   3.7082433371327092E-002  0.51861124999999997        1.6482486583529828E-004   1.1499130093145773E-016
 chl          54   3.2332087246785468E-005   8.7189766979491989E-004   3.7082433371327092E-002
 chl2c          55   4.0232101621612969E-002   3.7357235588660491E-002  0.57808280000000001        1.6482486583529828E-004   3.5636395135373320E-006
 chl          55   3.5078275654836764E-005   8.7189766979491989E-004   4.0232101621612969E-002
 chl2c          56   3.7507394187257688E-002   3.7507394187257688E-002  0.61626080000000005        1.6482486583529828E-004   1.5697568650069408E-016
 chl          56   3.2702609591949503E-005   8.7189766979491989E-004   3.7507394187257688E-002
 chl2c          57   3.7727617852646313E-002   3.7727617852646313E-002  0.68163462500000005        1.6482486583529828E-004   3.2241555958992152E-006
 chl          57   3.2894622092635537E-005   8.7189766979491989E-004   3.7727617852646313E-002
 chl2c          58   3.7765358178394853E-002   3.7765358178394853E-002  0.69416802499999997        1.6482486583529828E-004   1.4606254537235039E-006
 chl          58   3.2927527794712996E-005   8.7189766979491989E-004   3.7765358178394853E-002
 chl2c          59   3.7173699120809672E-002   3.7173699120809672E-002  0.53705127500000005        1.6482486583529828E-004   1.5968136886976811E-016
 chl          59   3.2411661641091414E-005   8.7189766979491989E-004   3.7173699120809672E-002
 chl2c          60   3.7607757740906807E-002   3.7607757740906807E-002  0.64452155000000000        1.6482486583529828E-004   7.4632972768859194E-007
 chl          60   3.2790116340508505E-005   8.7189766979491989E-004   3.7607757740906807E-002
 chl2c          61   3.7805373434125003E-002   3.7805373434125003E-002  0.70794139999999994        1.6482486583529828E-004   1.3720849535424404E-016
 chl          61   3.2962417002940358E-005   8.7189766979491989E-004   3.7805373434125003E-002
 chl2c          62   3.7956103087269030E-002   3.7956103087269030E-002  0.76481592499999995        1.6482486583529828E-004   1.1196837018229971E-016
 chl          62   3.3093837836285630E-005   8.7189766979491989E-004   3.7956103087269030E-002
 chl2c          63   3.7855601011927406E-002   3.7855601011927406E-002  0.72597904999999996        1.6482486583529828E-004   2.1277975068823566E-006
 chl          63   3.3006210310985717E-005   8.7189766979491989E-004   3.7855601011927406E-002
 chl2c          64   2.5708982294816416E-002   2.5708982294816416E-002  0.48435739999999999        8.9152727120302665E-005   9.3544722287872468E-017
 chl          64   2.2415601755649285E-005   8.7189766979491989E-004   2.5708982294816416E-002
 chl2c          65   3.7953597170552002E-002   3.7953597170552002E-002  0.76379975000000000        1.6482486583529828E-004   1.2372158755136633E-016
 chl          65   3.3091652933339352E-005   8.7189766979491989E-004   3.7953597170552002E-002
 chl2c          66   3.1840477731474713E-002   3.1840477731474713E-002  0.35213202499999996        9.9883599566653953E-005   7.7149381680467955E-017
 chl          66   2.7761638339229840E-005   8.7189766979491989E-004   3.1840477731474713E-002
 chl2c          67   3.7937587124568600E-002   3.7937587124568600E-002  0.75736760000000003        1.6482486583529828E-004   1.3090210216189403E-016
 chl          67   3.3077693811553120E-005   8.7189766979491989E-004   3.7937587124568600E-002
 chl2c          68   3.7855407263856986E-002   3.7855407263856986E-002  0.72590779999999999        1.6482486583529828E-004   1.1411665425311826E-006
 chl          68   3.3006041382494588E-005   8.7189766979491989E-004   3.7855407263856986E-002
 chl2c          69   3.0239062768899871E-002   2.1732330561541505E-002  0.45524217500000003        1.6482486583529828E-004   2.6693863846614078E-006
 chl          69   2.6365368364986117E-005   8.7189766979491989E-004   3.0239062768899871E-002
 chl2c          70   3.2658010878182209E-002   3.2658010878182209E-002  0.48694062500000002        9.9883599566653953E-005   9.7052338999834608E-017
 chl          70   2.8474443584824212E-005   8.7189766979491989E-004   3.2658010878182209E-002
 chl2c          71   4.3481058864416305E-002   4.3481058864416305E-002  0.23986107500000001        6.6734359016436780E-005   8.4872654481133015E-017
 chl          71   3.7911033904100322E-005   8.7189766979491989E-004   4.3481058864416305E-002
 chl2c          72   3.7549776402781669E-002   3.7549776402781669E-002  0.62790522500000001        1.6482486583529828E-004   1.5747126183288806E-016
 chl          72   3.2739562546905610E-005   8.7189766979491989E-004   3.7549776402781669E-002
 chl2c          73   3.1852614277819484E-002   3.1852614277819484E-002  0.35362212500000001        9.9883599566653953E-005   9.3545441173589213E-017
 chl          73   2.7772220165707203E-005   8.7189766979491989E-004   3.1852614277819484E-002
 chl2c          74   3.7616827685877569E-002   3.7616827685877569E-002  0.64719590000000005        1.6482486583529828E-004   8.5898696095243156E-007
 chl          74   3.2798024404393681E-005   8.7189766979491989E-004   3.7616827685877569E-002
 chl2c          75   3.7826830779512356E-002   3.7826830779512356E-002  0.71554212500000003        1.6482486583529828E-004   1.2414208608560642E-016
 chl          75   3.2981125612383574E-005   8.7189766979491989E-004   3.7826830779512356E-002
 chl2c          76   3.7257729557919804E-002   3.7257729557919804E-002  0.55513977500000000        1.6482486583529828E-004   3.2205686532134881E-006
 chl          76   3.2484927583399586E-005   8.7189766979491989E-004   3.7257729557919804E-002
 chl2c          77   3.7138172437479272E-002   3.7138172437479272E-002  0.52973029999999999        1.6482486583529828E-004   1.5017408506147074E-007
 chl          77   3.2380686008680097E-005   8.7189766979491989E-004   3.7138172437479272E-002
 chl2c          78   5.6224560204132697E-002   4.7515248899399322E-002  0.45117492500000000        6.6734359016436780E-005   2.1431274566517244E-006
 chl          78   4.9022063027227486E-005   8.7189766979491989E-004   5.6224560204132697E-002
 prod   4.0704234685134864E-007   125.75751958610390        10.000000000000000     
 chl2c           1   3.7477407714772232E-002   3.7477407714772232E-002  0.60826437499999997        1.4022788058191084E-004   1.3836511018794151E-016
 chl           1   3.2314085335963674E-005   8.6222840122495011E-004   3.7477407714772232E-002
 chl2c           2   3.5581137875666045E-002   3.2640259920490348E-002  0.48302390000000001        8.6266916327792931E-005   1.6567815284918880E-006
 chl           2   3.0679067624300049E-005   8.6222840122495011E-004   3.5581137875666045E-002
 chl2c           3   3.7922212503796585E-002   3.7922212503796585E-002  0.75128689999999998        1.4022788058191084E-004   1.4925837407571688E-016
 chl           3   3.2697608658061339E-005   8.6222840122495011E-004   3.7922212503796585E-002
 chl2c           4   4.1711687033642607E-002   3.7976509103863923E-002  0.77318742499999993        1.4022788058191084E-004   3.0913415138347235E-006
 chl           4   3.5965001223413147E-005   8.6222840122495011E-004   4.1711687033642607E-002
 chl2c           5   5.8386661640497474E-002   2.5710500362372445E-002  0.48489679999999996        7.4791749499838165E-005   2.4823173341180318E-006
 chl           5   5.0342637919148258E-005   8.6222840122495011E-004   5.8386661640497474E-002
 chl2c           6   3.1261039902252048E-002   3.1261039902252048E-002  0.29222855000000003        8.6266916327792931E-005   1.0498791751340054E-016
 chl           6   2.6954156455548156E-005   8.6222840122495011E-004   3.1261039902252048E-002
 chl2c           7   4.4850792624668012E-002   4.3064391842467263E-002  0.22770740000000000        5.8084831994442926E-005   1.6220690994220299E-006
 chl           7   3.8671627218439285E-005   8.6222840122495011E-004   4.4850792624668012E-002
 chl2c           8   4.7969800906495587E-002   4.7969800906495587E-002  0.49578364999999996        5.8084831994442926E-005   7.5803426977117163E-017
 chl           8   4.1360924742686855E-005   8.6222840122495011E-004   4.7969800906495587E-002
 chl2c           9   3.0690590559369617E-002   2.4803669054600401E-002  0.28700202499999999        7.4791749499838165E-005   1.2851266262656579E-006
 chl           9   2.6462298830654813E-005   8.6222840122495011E-004   3.0690590559369617E-002
 chl2c          10   6.7959280452598775E-002   2.5387016219684602E-002  0.39094662499999999        7.4791749499838165E-005   3.0761281982802236E-006
 chl          10   5.8596421733042246E-005   8.6222840122495011E-004   6.7959280452598775E-002
 chl2c          11   2.1820572217820047E-002   2.1820572217820047E-002  0.49737575000000001        1.4022788058191084E-004   1.3786585887333731E-016
 chl          11   1.8814317097184542E-005   8.6222840122495011E-004   2.1820572217820047E-002
 chl2c          12   4.5290941298723353E-002   4.5290941298723353E-002  0.30768942500000002        5.8084831994442926E-005   7.5161738199858874E-017
 chl          12   3.9051135905971301E-005   8.6222840122495011E-004   4.5290941298723353E-002
 chl2c          13   3.7935816987997487E-002   3.7935816987997487E-002  0.75666275000000005        1.4022788058191084E-004   1.2403927560477890E-016
 chl          13   3.2709338830723375E-005   8.6222840122495011E-004   3.7935816987997487E-002
 chl2c          14   4.6856526101924839E-002   4.6856526101924839E-002  0.39804095000000000        5.8084831994442926E-005   8.3277914277997472E-017
 chl          14   4.0401027587817801E-005   8.6222840122495011E-004   4.6856526101924839E-002
 chl2c          15   4.2221830989847567E-002   2.0954299823745293E-002  0.25607262500000000        1.4022788058191084E-004   3.5448162163500718E-006
 chl          15   3.6404861831166320E-005   8.6222840122495011E-004   4.2221830989847567E-002
 chl2c          16   3.7823443882273475E-002   3.7823443882273475E-002  0.71433214999999994        1.4022788058191084E-004   1.5540822846880222E-016
 chl          16   3.2612447547434278E-005   8.6222840122495011E-004   3.7823443882273475E-002
 chl2c          17   3.7542254757581245E-002   3.7542254757581245E-002  0.62580860000000005        1.4022788058191084E-004   1.5533012610960268E-016
 chl          17   3.2369998298009052E-005   8.6222840122495011E-004   3.7542254757581245E-002
 chl2c          18   2.5694475239060960E-002   2.5694475239060960E-002  0.47925950000000000        7.4791749499838165E-005   1.4396253129772901E-016
 chl          18   2.2154506305689599E-005   8.6222840122495011E-004   2.5694475239060960E-002
 chl2c          19   3.7570220750293731E-002   3.7570220750293731E-002  0.63367130000000005        1.4022788058191084E-004   1.7079389233135301E-006
 chl          19   3.2394111371194211E-005   8.6222840122495011E-004   3.7570220750293731E-002
 chl2c          20   3.7020645196759419E-002   3.7020645196759419E-002  0.50678202500000002        1.4022788058191084E-004   1.3663026926716670E-016
 chl          20   3.1920251720318003E-005   8.6222840122495011E-004   3.7020645196759419E-002
 chl2c          21   3.7838475073783531E-002   3.7838475073783531E-002  0.71973185000000006        1.4022788058191084E-004   9.6190678013931266E-007
 chl          21   3.2625407867658498E-005   8.6222840122495011E-004   3.7838475073783531E-002
 chl2c          22   4.5532236111784509E-002   3.7613353106285476E-002  0.64616892500000001        1.4022788058191084E-004   3.4344529039719375E-006
 chl          22   3.9259187146860893E-005   8.6222840122495011E-004   4.5532236111784509E-002
 chl2c          23   3.2286562315070731E-002   3.2286562315070731E-002  0.41564179999999995        8.6266916327792931E-005   9.9224008666899327E-017
 chl          23   2.7838391005973161E-005   8.6222840122495011E-004   3.2286562315070731E-002
 chl2c          24   3.7348402796863071E-002   3.7348402796863071E-002  0.57597492500000003        1.4022788058191084E-004   1.1084134134358158E-016
 chl          24   3.2202853631844702E-005   8.6222840122495011E-004   3.7348402796863071E-002
 chl2c          25   4.5426679235459781E-002   4.5426679235459781E-002  0.31406487500000002        5.8084831994442926E-005   7.8960711773153990E-017
 chl          25   3.9168173010149123E-005   8.6222840122495011E-004   4.5426679235459781E-002
 chl2c          26   4.7955660680174553E-002   4.7955660680174553E-002  0.49427735000000000        5.8084831994442926E-005   7.2621553719732542E-017
 chl          26   4.1348732637953110E-005   8.6222840122495011E-004   4.7955660680174553E-002
 chl2c          27   4.5333133499525620E-002   4.5333133499525620E-002  0.30964730000000001        5.8084831994442926E-005   8.2648893569114317E-017
 chl          27   3.9087515219813204E-005   8.6222840122495011E-004   4.5333133499525620E-002
 chl2c          28   3.1209236063453518E-002   3.1209236063453518E-002  0.28776342500000002        8.6266916327792931E-005   8.2200338219281991E-017
 chl          28   2.6909489714443584E-005   8.6222840122495011E-004   3.1209236063453518E-002
 chl2c          29   4.0780967586065787E-002   3.7743217595736761E-002  0.68676297499999994        1.4022788058191084E-004   3.0398233862214962E-006
 chl          29   3.5162508482140020E-005   8.6222840122495011E-004   4.0780967586065787E-002
 chl2c          30   2.5380056985171612E-002   2.5380056985171612E-002  0.38930277499999999        7.4791749499838165E-005   1.5794396157081542E-016
 chl          30   2.1883405957322646E-005   8.6222840122495011E-004   2.5380056985171612E-002
 chl2c          31   4.0361551133716929E-002   3.7576959810037038E-002  0.63559385000000002        1.4022788058191084E-004   3.0217979336629376E-006
 chl          31   3.4800875704983820E-005   8.6222840122495011E-004   4.0361551133716929E-002
 chl2c          32   4.3166139141920808E-002   2.0893126428578448E-002  0.24722667500000001        1.4022788058191084E-004   3.6667718279504279E-006
 chl          32   3.7219071139392117E-005   8.6222840122495011E-004   4.3166139141920808E-002
 chl2c          33   3.7458922634011876E-002   3.7458922634011876E-002  0.60343137499999999        1.4022788058191084E-004   1.9838510063471519E-006
 chl          33   3.2298146974333157E-005   8.6222840122495011E-004   3.7458922634011876E-002
 chl2c          34   4.9722068199528201E-002   2.5350269098008315E-002  0.38241020000000003        7.4791749499838165E-005   2.1372978103612767E-006
 chl          34   4.2871779369277133E-005   8.6222840122495011E-004   4.9722068199528201E-002
 chl2c          35   2.5740370148566064E-002   2.5740370148566064E-002  0.49574644999999995        7.4791749499838165E-005   1.1375575551068653E-016
 chl          35   2.2194078200136550E-005   8.6222840122495011E-004   2.5740370148566064E-002
 chl2c          36   3.7770393924465726E-002   3.7770393924465726E-002  0.69587337500000002        1.4022788058191084E-004   1.1813863401157194E-016
 chl          36   3.2566706367128654E-005   8.6222840122495011E-004   3.7770393924465726E-002
 chl2c          37   2.1353674699533250E-002   2.1353674699533250E-002  0.33194060000000003        1.4022788058191084E-004   1.0409516909336511E-016
 chl          37   1.8411744796456223E-005   8.6222840122495011E-004   2.1353674699533250E-002
 chl2c          38   2.1543295686358745E-002   2.1543295686358745E-002  0.38455722500000000        1.4022788058191084E-004   1.6125080391843209E-016
 chl          38   1.8575241396765466E-005   8.6222840122495011E-004   2.1543295686358745E-002
 chl2c          39   2.5670077108751441E-002   2.5670077108751441E-002  0.47091117500000002        7.4791749499838165E-005   1.2956717663631990E-016
 chl          39   2.2133469544799946E-005   8.6222840122495011E-004   2.5670077108751441E-002
 chl2c          40   3.7687445774703773E-002   3.7687445774703773E-002  0.66875547499999999        1.4022788058191084E-004   1.5570978664658479E-016
 chl          40   3.2495186116574836E-005   8.6222840122495011E-004   3.7687445774703773E-002
 chl2c          41   2.5582381488167241E-002   2.5582381488167241E-002  0.44304987499999998        7.4791749499838165E-005   9.3676016714325393E-017
 chl          41   2.2057855890069198E-005   8.6222840122495011E-004   2.5582381488167241E-002
 chl2c          42   3.7949995630725070E-002   3.7949995630725070E-002  0.76234377499999995        1.4022788058191084E-004   1.3123695712268945E-016
 chl          42   3.2721564059173922E-005   8.6222840122495011E-004   3.7949995630725070E-002
 chl2c          43   2.1185090152268007E-002   2.1185090152268007E-002  0.29539925000000000        1.4022788058191084E-004   1.6055371371545833E-016
 chl          43   1.8266386411796479E-005   8.6222840122495011E-004   2.1185090152268007E-002
 chl2c          44   3.7536352708156646E-002   3.7536352708156646E-002  0.62417262500000004        1.4022788058191084E-004   1.1204394856165551E-016
 chl          44   3.2364909383369731E-005   8.6222840122495011E-004   3.7536352708156646E-002
 chl2c          45   4.6544927192009838E-002   4.6544927192009838E-002  0.37662252499999999        5.8084831994442926E-005   7.6550994799047871E-007
 chl          45   4.0132358157898346E-005   8.6222840122495011E-004   4.6544927192009838E-002
 chl2c          46   4.1944633338356102E-002   3.7083195475449568E-002  0.51876034999999998        1.4022788058191084E-004   3.1996095864667936E-006
 chl          46   3.6165854143297524E-005   8.6222840122495011E-004   4.1944633338356102E-002
 chl2c          47   3.7519784612651236E-002   3.7519784612651236E-002  0.61962282499999999        1.4022788058191084E-004   1.4323645367462617E-016
 chl          47   3.2350623900870759E-005   8.6222840122495011E-004   3.7519784612651236E-002
 chl2c          48   3.7823212136301673E-002   3.7823212136301673E-002  0.71424949999999998        1.4022788058191084E-004   1.3772793361811461E-016
 chl          48   3.2612247729475522E-005   8.6222840122495011E-004   3.7823212136301673E-002
 chl2c          49   3.7152990741888416E-002   3.7152990741888416E-002  0.53276120000000005        1.4022788058191084E-004   1.2813198546681245E-016
 chl          49   3.2034363808103819E-005   8.6222840122495011E-004   3.7152990741888416E-002
 chl2c          50   3.1980288058899041E-002   2.1533072915600981E-002  0.38132569999999999        1.4022788058191084E-004   2.4475286149443665E-006
 chl          50   2.7574312643737885E-005   8.6222840122495011E-004   3.1980288058899041E-002
 chl2c          51   2.0700971146093840E-002   2.0700971146093840E-002  0.22275920000000002        1.4022788058191084E-004   1.7147822542273367E-016
 chl          51   1.7848965255100315E-005   8.6222840122495011E-004   2.0700971146093840E-002
 chl2c          52   3.7581825176985564E-002   3.7581825176985564E-002  0.63698869999999996        1.4022788058191084E-004   1.5248592384277579E-016
 chl          52   3.2404117037467842E-005   8.6222840122495011E-004   3.7581825176985564E-002
 chl2c          53   3.7925801262726190E-002   3.7925801262726190E-002  0.75269794999999995        1.4022788058191084E-004   1.3648294304938518E-016
 chl          53   3.2700702987935600E-005   8.6222840122495011E-004   3.7925801262726190E-002
 chl2c          54   3.7082433371327092E-002   3.7082433371327092E-002  0.51861124999999997        1.4022788058191084E-004   1.1186326459333324E-016
 chl          54   3.1973527239290096E-005   8.6222840122495011E-004   3.7082433371327092E-002
 chl2c          55   4.5021372097436861E-002   3.7357235588660491E-002  0.57808280000000001        1.4022788058191084E-004   3.4232285110902445E-006
 chl          55   3.8818705684526561E-005   8.6222840122495011E-004   4.5021372097436861E-002
 chl2c          56   3.7507394187257688E-002   3.7507394187257688E-002  0.61626080000000005        1.4022788058191084E-004   1.5289096488812868E-016
 chl          56   3.2339940524193185E-005   8.6222840122495011E-004   3.7507394187257688E-002
 chl2c          57   3.8657952057198228E-002   3.7727617852646313E-002  0.68163462500000005        1.4022788058191084E-004   2.8734235290152678E-006
 chl          57   3.3331984196908802E-005   8.6222840122495011E-004   3.8657952057198228E-002
 chl2c          58   3.7765358178394853E-002   3.7765358178394853E-002  0.69416802499999997        1.4022788058191084E-004   1.7511782902613758E-006
 chl          58   3.2562364403844987E-005   8.6222840122495011E-004   3.7765358178394853E-002
 chl2c          59   3.7173699120809672E-002   3.7173699120809672E-002  0.53705127500000005        1.4022788058191084E-004   1.5553826582053863E-016
 chl          59   3.2052219160553059E-005   8.6222840122495011E-004   3.7173699120809672E-002
 chl2c          60   3.7607757740906807E-002   3.7607757740906807E-002  0.64452155000000000        1.4022788058191084E-004   9.7533383072698626E-007
 chl          60   3.2426476830597316E-005   8.6222840122495011E-004   3.7607757740906807E-002
 chl2c          61   3.7805373434125003E-002   3.7805373434125003E-002  0.70794139999999994        1.4022788058191084E-004   1.3356225073460619E-016
 chl          61   3.2596866693817806E-005   8.6222840122495011E-004   3.7805373434125003E-002
 chl2c          62   3.7956103087269030E-002   3.7956103087269030E-002  0.76481592499999995        1.4022788058191084E-004   1.0891294243506314E-016
 chl          62   3.2726830081665369E-005   8.6222840122495011E-004   3.7956103087269030E-002
 chl2c          63   3.7855601011927406E-002   3.7855601011927406E-002  0.72597904999999996        1.4022788058191084E-004   2.1842240518769030E-006
 chl          63   3.2640174337923769E-005   8.6222840122495011E-004   3.7855601011927406E-002
 chl2c          64   2.5708982294816416E-002   2.5708982294816416E-002  0.48435739999999999        7.4791749499838165E-005   9.1128058447059422E-017
 chl          64   2.2167014701180106E-005   8.6222840122495011E-004   2.5708982294816416E-002
 chl2c          65   3.7953597170552002E-002   3.7953597170552002E-002  0.76379975000000000        1.4022788058191084E-004   1.2038668929935975E-016
 chl          65   3.2724669409100844E-005   8.6222840122495011E-004   3.7953597170552002E-002
 chl2c          66   3.1840477731474713E-002   3.1840477731474713E-002  0.35213202499999996        8.6266916327792931E-005   7.8558877863967325E-017
 chl          66   2.7453764208648067E-005   8.6222840122495011E-004   3.1840477731474713E-002
 chl2c          67   3.7937587124568600E-002   3.7937587124568600E-002  0.75736760000000003        1.4022788058191084E-004   1.2740020341092078E-016
 chl          67   3.2710865092749033E-005   8.6222840122495011E-004   3.7937587124568600E-002
 chl2c          68   3.7855407263856986E-002   3.7855407263856986E-002  0.72590779999999999        1.4022788058191084E-004   1.4642241022022165E-006
 chl          68   3.2640007282834769E-005   8.6222840122495011E-004   3.7855407263856986E-002
 chl2c          69   3.3639905610266974E-002   2.1732330561541505E-002  0.45524217500000003        1.4022788058191084E-004   2.5468225860394792E-006
 chl          69   2.9005282031698723E-005   8.6222840122495011E-004   3.3639905610266974E-002
 chl2c          70   3.2658010878182209E-002   3.2658010878182209E-002  0.48694062500000002        8.6266916327792931E-005   9.8680017257776381E-017
 chl          70   2.8158664506682075E-005   8.6222840122495011E-004   3.2658010878182209E-002
 chl2c          71   4.3481058864416305E-002   4.3481058864416305E-002  0.23986107500000001        5.8084831994442926E-005   8.6397533287799662E-017
 chl          71   3.7490603868233617E-005   8.6222840122495011E-004   4.3481058864416305E-002
 chl2c          72   3.7549776402781669E-002   3.7549776402781669E-002  0.62790522500000001        1.4022788058191084E-004   1.5337581770194112E-016
 chl          72   3.2376483674124796E-005   8.6222840122495011E-004   3.7549776402781669E-002
 chl2c          73   3.1852614277819484E-002   3.1852614277819484E-002  0.35362212500000001        8.6266916327792931E-005   9.5194328666766925E-017
 chl          73   2.7464228683599313E-005   8.6222840122495011E-004   3.1852614277819484E-002
 chl2c          74   3.7616827685877569E-002   3.7616827685877569E-002  0.64719590000000005        1.4022788058191084E-004   1.1385852193496684E-006
 chl          74   3.2434297194748657E-005   8.6222840122495011E-004   3.7616827685877569E-002
 chl2c          75   3.7826830779512356E-002   3.7826830779512356E-002  0.71554212500000003        1.4022788058191084E-004   1.2079733015879045E-016
 chl          75   3.2615367826425675E-005   8.6222840122495011E-004   3.7826830779512356E-002
 chl2c          76   4.0584432723916521E-002   3.7257729557919804E-002  0.55513977500000000        1.4022788058191084E-004   3.0699698327312864E-006
 chl          76   3.4993050542164091E-005   8.6222840122495011E-004   4.0584432723916521E-002
 chl2c          77   3.7138172437479272E-002   3.7138172437479272E-002  0.52973029999999999        1.4022788058191084E-004   3.3620826312454202E-007
 chl          77   3.2021587045184264E-005   8.6222840122495011E-004   3.7138172437479272E-002
 chl2c          78   5.9076980595363059E-002   4.7515248899399322E-002  0.45117492500000000        5.8084831994442926E-005   1.9742467045423587E-006
 chl          78   5.0937850527937295E-005   8.6222840122495011E-004   5.9076980595363059E-002
 prod   4.1571507582179560E-007   105.38322007728075        10.000000000000000     
 chl2c           1   3.7477407714772232E-002   3.7477407714772232E-002  0.60826437499999997        1.1975819283298196E-004   1.4421501259007891E-016
 chl           1   2.9012110406520521E-005   7.7412265616986630E-004   3.7477407714772232E-002
 chl2c           2   4.5009681640561870E-002   3.2640259920490348E-002  0.48302390000000001        7.4645509061215952E-005   1.8525077836382679E-006
 chl           2   3.4843014304951820E-005   7.7412265616986630E-004   4.5009681640561870E-002
 chl2c           3   3.7922212503796585E-002   3.7922212503796585E-002  0.75128689999999998        1.1975819283298196E-004   1.5556660128627109E-016
 chl           3   2.9356443871277127E-005   7.7412265616986630E-004   3.7922212503796585E-002
 chl2c           4   5.1897793966848307E-002   3.7976509103863923E-002  0.77318742499999993        1.1975819283298196E-004   3.3311886557099470E-006
 chl           4   4.0175258114973074E-005   7.7412265616986630E-004   5.1897793966848307E-002
 chl2c           5   6.7019976554665045E-002   2.5710500362372445E-002  0.48489679999999996        6.3398319031071897E-005   2.4652050701006043E-006
 chl           5   5.1881682266939471E-005   7.7412265616986630E-004   6.7019976554665045E-002
 chl2c           6   3.1261039902252048E-002   3.1261039902252048E-002  0.29222855000000003        7.4645509061215952E-005   1.2591922261148836E-016
 chl           6   2.4199879243763534E-005   7.7412265616986630E-004   3.1261039902252048E-002
 chl2c           7   5.6546093942812417E-002   4.3064391842467263E-002  0.22770740000000000        5.0619001652762079E-005   1.9039596612815842E-006
 chl           7   4.3773612439040734E-005   7.7412265616986630E-004   5.6546093942812417E-002
 chl2c           8   4.7969800906495587E-002   4.7969800906495587E-002  0.49578364999999996        5.0619001652762079E-005   5.9711255159876459E-008
 chl           8   3.7134509693676026E-005   7.7412265616986630E-004   4.7969800906495587E-002
 chl2c           9   4.6477968951195908E-002   2.4803669054600401E-002  0.28700202499999999        6.3398319031071897E-005   1.7580099585635537E-006
 chl           9   3.5979648777880352E-005   7.7412265616986630E-004   4.6477968951195908E-002
 chl2c          10   7.8624812557340926E-002   2.5387016219684602E-002  0.39094662499999999        6.3398319031071897E-005   3.1197696039354519E-006
 chl          10   6.0865248737746614E-005   7.7412265616986630E-004   7.8624812557340926E-002
 chl2c          11   2.1820572217820047E-002   2.1820572217820047E-002  0.49737575000000001        1.1975819283298196E-004   1.4365522536631680E-016
 chl          11   1.6891799324405244E-005   7.7412265616986630E-004   2.1820572217820047E-002
 chl2c          12   4.5290941298723353E-002   4.5290941298723353E-002  0.30768942500000002        5.0619001652762079E-005   8.8552278036953534E-017
 chl          12   3.5060743778601215E-005   7.7412265616986630E-004   4.5290941298723353E-002
 chl2c          13   3.7935816987997487E-002   3.7935816987997487E-002  0.75666275000000005        1.1975819283298196E-004   1.2928526010820109E-016
 chl          13   2.9366975410722553E-005   7.7412265616986630E-004   3.7935816987997487E-002
 chl2c          14   4.6856526101924839E-002   4.6856526101924839E-002  0.39804095000000000        5.0619001652762079E-005   1.0048756383330772E-016
 chl          14   3.6272698444914725E-005   7.7412265616986630E-004   4.6856526101924839E-002
 chl2c          15   4.8805070015646421E-002   2.0954299823745293E-002  0.25607262500000000        1.1975819283298196E-004   3.6105387253628822E-006
 chl          15   3.7781110435068503E-005   7.7412265616986630E-004   4.8805070015646421E-002
 chl2c          16   3.7823443882273475E-002   3.7823443882273475E-002  0.71433214999999994        1.1975819283298196E-004   1.6197481535334401E-016
 chl          16   2.9279984843637423E-005   7.7412265616986630E-004   3.7823443882273475E-002
 chl2c          17   3.7542254757581245E-002   3.7542254757581245E-002  0.62580860000000005        1.1975819283298196E-004   1.6189343374939726E-016
 chl          17   2.9062309971544594E-005   7.7412265616986630E-004   3.7542254757581245E-002
 chl2c          18   2.5694475239060960E-002   2.5694475239060960E-002  0.47925950000000000        6.3398319031071897E-005   1.5000093909447825E-016
 chl          18   1.9890675420952729E-005   7.7412265616986630E-004   2.5694475239060960E-002
 chl2c          19   3.7570220750293731E-002   3.7570220750293731E-002  0.63367130000000005        1.1975819283298196E-004   1.9657456153957741E-006
 chl          19   2.9083959080105609E-005   7.7412265616986630E-004   3.7570220750293731E-002
 chl2c          20   3.7020645196759419E-002   3.7020645196759419E-002  0.50678202500000002        1.1975819283298196E-004   1.4240710449468251E-016
 chl          20   2.8658520192837603E-005   7.7412265616986630E-004   3.7020645196759419E-002
 chl2c          21   3.7838475073783531E-002   3.7838475073783531E-002  0.71973185000000006        1.1975819283298196E-004   1.3037901060240835E-006
 chl          21   2.9291620829534585E-005   7.7412265616986630E-004   3.7838475073783531E-002
 chl2c          22   5.3977831441348732E-002   3.7613353106285476E-002  0.64616892500000001        1.1975819283298196E-004   3.5267515673745576E-006
 chl          22   4.1785462249666205E-005   7.7412265616986630E-004   5.3977831441348732E-002
 chl2c          23   3.2286562315070731E-002   3.2286562315070731E-002  0.41564179999999995        7.4645509061215952E-005   1.1585794655880219E-016
 chl          23   2.4993759377936461E-005   7.7412265616986630E-004   3.2286562315070731E-002
 chl2c          24   3.7348402796863071E-002   3.7348402796863071E-002  0.57597492500000003        1.1975819283298196E-004   1.1552999213190653E-016
 chl          24   2.8912244776809706E-005   7.7412265616986630E-004   3.7348402796863071E-002
 chl2c          25   4.5426679235459781E-002   4.5426679235459781E-002  0.31406487500000002        5.0619001652762079E-005   9.2895972350608888E-017
 chl          25   3.5165821590730636E-005   7.7412265616986630E-004   4.5426679235459781E-002
 chl2c          26   4.7955660680174553E-002   4.7955660680174553E-002  0.49427735000000000        5.0619001652762079E-005   8.5640968108579794E-017
 chl          26   3.7123563424117539E-005   7.7412265616986630E-004   4.7955660680174553E-002
 chl2c          27   4.5333133499525620E-002   4.5333133499525620E-002  0.30964730000000001        5.0619001652762079E-005   9.9746316234412581E-017
 chl          27   3.5093405717155921E-005   7.7412265616986630E-004   4.5333133499525620E-002
 chl2c          28   3.1209236063453518E-002   3.1209236063453518E-002  0.28776342500000002        7.4645509061215952E-005   9.9217577442651235E-017
 chl          28   2.4159776718473020E-005   7.7412265616986630E-004   3.1209236063453518E-002
 chl2c          29   4.7993670993357121E-002   3.7743217595736761E-002  0.68676297499999994        1.1975819283298196E-004   3.0897407694137144E-006
 chl          29   3.7152988068720280E-005   7.7412265616986630E-004   4.7993670993357121E-002
 chl2c          30   2.5380056985171612E-002   2.5380056985171612E-002  0.38930277499999999        6.3398319031071897E-005   1.6454912027124434E-016
 chl          30   1.9647277127103617E-005   7.7412265616986630E-004   2.5380056985171612E-002
 chl2c          31   4.5596074653636007E-002   3.7576959810037038E-002  0.63559385000000002        1.1975819283298196E-004   2.9412504487603132E-006
 chl          31   3.5296954421792225E-005   7.7412265616986630E-004   4.5596074653636007E-002
 chl2c          32   5.0227674347965337E-002   2.0893126428578448E-002  0.24722667500000001        1.1975819283298196E-004   3.7744146822706536E-006
 chl          32   3.8882380679481981E-005   7.7412265616986630E-004   5.0227674347965337E-002
 chl2c          33   3.7458922634011876E-002   3.7458922634011876E-002  0.60343137499999999        1.1975819283298196E-004   2.2233392220194895E-006
 chl          33   2.8997800686702799E-005   7.7412265616986630E-004   3.7458922634011876E-002
 chl2c          34   5.3306871531296554E-002   2.5350269098008315E-002  0.38241020000000003        6.3398319031071897E-005   1.9634874771701606E-006
 chl          34   4.1266056981913119E-005   7.7412265616986630E-004   5.3306871531296554E-002
 chl2c          35   2.5740370148566064E-002   2.5740370148566064E-002  0.49574644999999995        6.3398319031071897E-005   1.1855050193634511E-016
 chl          35   1.9926203710203496E-005   7.7412265616986630E-004   2.5740370148566064E-002
 chl2c          36   3.7770393924465726E-002   3.7770393924465726E-002  0.69587337500000002        1.1975819283298196E-004   1.2313554207572085E-016
 chl          36   2.9238917669389588E-005   7.7412265616986630E-004   3.7770393924465726E-002
 chl2c          37   2.1353674699533250E-002   2.1353674699533250E-002  0.33194060000000003        1.1975819283298196E-004   1.0848765248174622E-016
 chl          37   1.6530363377389952E-005   7.7412265616986630E-004   2.1353674699533250E-002
 chl2c          38   2.1543295686358745E-002   2.1543295686358745E-002  0.38455722500000000        1.1975819283298196E-004   1.6798905149209125E-016
 chl          38   1.6677153279376855E-005   7.7412265616986630E-004   2.1543295686358745E-002
 chl2c          39   2.5670077108751441E-002   2.5670077108751441E-002  0.47091117500000002        6.3398319031071897E-005   1.3501585981767606E-016
 chl          39   1.9871788275511949E-005   7.7412265616986630E-004   2.5670077108751441E-002
 chl2c          40   3.7687445774703773E-002   3.7687445774703773E-002  0.66875547499999999        1.1975819283298196E-004   1.6228903443601573E-016
 chl          40   2.9174705627371491E-005   7.7412265616986630E-004   3.7687445774703773E-002
 chl2c          41   2.5582381488167241E-002   2.5582381488167241E-002  0.44304987499999998        6.3398319031071897E-005   9.7632704989221869E-017
 chl          41   1.9803901108770843E-005   7.7412265616986630E-004   2.5582381488167241E-002
 chl2c          42   3.7949995630725070E-002   3.7949995630725070E-002  0.76234377499999995        1.1975819283298196E-004   1.3678651814050751E-016
 chl          42   2.9377951419291712E-005   7.7412265616986630E-004   3.7949995630725070E-002
 chl2c          43   2.1185090152268007E-002   2.1185090152268007E-002  0.29539925000000000        1.1975819283298196E-004   1.6726393781079353E-016
 chl          43   1.6399858259871786E-005   7.7412265616986630E-004   2.1185090152268007E-002
 chl2c          44   3.7536352708156646E-002   3.7536352708156646E-002  0.62417262500000004        1.1975819283298196E-004   1.1678341655934662E-016
 chl          44   2.9057741061367178E-005   7.7412265616986630E-004   3.7536352708156646E-002
 chl2c          45   4.6544927192009838E-002   4.6544927192009838E-002  0.37662252499999999        5.0619001652762079E-005   5.2631412464532310E-007
 chl          45   3.6031482669111691E-005   7.7412265616986630E-004   4.6544927192009838E-002
 chl2c          46   4.8515474038303051E-002   3.7083195475449568E-002  0.51876034999999998        1.1975819283298196E-004   3.2047799875568121E-006
 chl          46   3.7556927627871344E-005   7.7412265616986630E-004   4.8515474038303051E-002
 chl2c          47   3.7519784612651236E-002   3.7519784612651236E-002  0.61962282499999999        1.1975819283298196E-004   1.4929141741171776E-016
 chl          47   2.9044915323266853E-005   7.7412265616986630E-004   3.7519784612651236E-002
 chl2c          48   3.7823212136301673E-002   3.7823212136301673E-002  0.71424949999999998        1.1975819283298196E-004   1.4355100200892753E-016
 chl          48   2.9279805443830174E-005   7.7412265616986630E-004   3.7823212136301673E-002
 chl2c          49   3.7152990741888416E-002   3.7152990741888416E-002  0.53276120000000005        1.1975819283298196E-004   1.3355062380813560E-016
 chl          49   2.8760971877765110E-005   7.7412265616986630E-004   3.7152990741888416E-002
 chl2c          50   3.9807214683689876E-002   2.1533072915600981E-002  0.38132569999999999        1.1975819283298196E-004   2.6614535426321315E-006
 chl          50   3.0815666765662108E-005   7.7412265616986630E-004   3.9807214683689876E-002
 chl2c          51   2.0700971146093840E-002   2.0700971146093840E-002  0.22275920000000002        1.1975819283298196E-004   1.7862558232369719E-016
 chl          51   1.6025090768909926E-005   7.7412265616986630E-004   2.0700971146093840E-002
 chl2c          52   3.7581825176985564E-002   3.7581825176985564E-002  0.63698869999999996        1.1975819283298196E-004   1.5892977984360957E-016
 chl          52   2.9092942329719622E-005   7.7412265616986630E-004   3.7581825176985564E-002
 chl2c          53   3.7925801262726190E-002   3.7925801262726190E-002  0.75269794999999995        1.1975819283298196E-004   1.4225357236631075E-016
 chl          53   2.9359222010872066E-005   7.7412265616986630E-004   3.7925801262726190E-002
 chl2c          54   3.7082433371327092E-002   3.7082433371327092E-002  0.51861124999999997        1.1975819283298196E-004   1.1659509801508097E-016
 chl          54   2.8706351818653819E-005   7.7412265616986630E-004   3.7082433371327092E-002
 chl2c          55   5.3164362853803389E-002   3.7357235588660491E-002  0.57808280000000001        1.1975819283298196E-004   3.5058559872351582E-006
 chl          55   4.1155737785964851E-005   7.7412265616986630E-004   5.3164362853803389E-002
 chl2c          56   3.7507394187257688E-002   3.7507394187257688E-002  0.61626080000000005        1.1975819283298196E-004   1.5935183586936626E-016
 chl          56   2.9035323614250125E-005   7.7412265616986630E-004   3.7507394187257688E-002
 chl2c          57   4.1920748352805334E-002   3.7727617852646313E-002  0.68163462500000005        1.1975819283298196E-004   2.6746695700287326E-006
 chl          57   3.2451801063502212E-005   7.7412265616986630E-004   4.1920748352805334E-002
 chl2c          58   3.7765358178394853E-002   3.7765358178394853E-002  0.69416802499999997        1.1975819283298196E-004   2.1341628414530996E-006
 chl          58   2.9235019384265406E-005   7.7412265616986630E-004   3.7765358178394853E-002
 chl2c          59   3.7173699120809672E-002   3.7173699120809672E-002  0.53705127500000005        1.1975819283298196E-004   1.6211031240792386E-016
 chl          59   2.8777002703060607E-005   7.7412265616986630E-004   3.7173699120809672E-002
 chl2c          60   3.7607757740906807E-002   3.7607757740906807E-002  0.64452155000000000        1.1975819283298196E-004   1.2686315356290187E-006
 chl          60   2.9113017314983629E-005   7.7412265616986630E-004   3.7607757740906807E-002
 chl2c          61   3.7805373434125003E-002   3.7805373434125003E-002  0.70794139999999994        1.1975819283298196E-004   1.3920982163341365E-016
 chl          61   2.9265996100318547E-005   7.7412265616986630E-004   3.7805373434125003E-002
 chl2c          62   3.7956103087269030E-002   3.7956103087269030E-002  0.76481592499999995        1.1975819283298196E-004   1.1352009484930772E-016
 chl          62   2.9382679339773963E-005   7.7412265616986630E-004   3.7956103087269030E-002
 chl2c          63   3.7855601011927406E-002   3.7855601011927406E-002  0.72597904999999996        1.1975819283298196E-004   2.3538341811679675E-006
 chl          63   2.9304878406259923E-005   7.7412265616986630E-004   3.7855601011927406E-002
 chl2c          64   2.5708982294816416E-002   2.5708982294816416E-002  0.48435739999999999        6.3398319031071897E-005   9.4977903523475953E-017
 chl          64   1.9901905661487348E-005   7.7412265616986630E-004   2.5708982294816416E-002
 chl2c          65   3.7953597170552002E-002   3.7953597170552002E-002  0.76379975000000000        1.1975819283298196E-004   1.2547851216149561E-016
 chl          65   2.9380739452868837E-005   7.7412265616986630E-004   3.7953597170552002E-002
 chl2c          66   3.1840477731474713E-002   3.1840477731474713E-002  0.35213202499999996        7.4645509061215952E-005   9.2437104424294878E-017
 chl          66   2.4648435195206683E-005   7.7412265616986630E-004   3.1840477731474713E-002
 chl2c          67   3.7937587124568600E-002   3.7937587124568600E-002  0.75736760000000003        1.1975819283298196E-004   1.3278797777210882E-016
 chl          67   2.9368345713546766E-005   7.7412265616986630E-004   3.7937587124568600E-002
 chl2c          68   3.7855407263856986E-002   3.7855407263856986E-002  0.72590779999999999        1.1975819283298196E-004   1.8776227501525146E-006
 chl          68   2.9304728421489020E-005   7.7412265616986630E-004   3.7855407263856986E-002
 chl2c          69   3.9510190312850635E-002   2.1732330561541505E-002  0.45524217500000003        1.1975819283298196E-004   2.5906778428052419E-006
 chl          69   3.0585733470760852E-005   7.7412265616986630E-004   3.9510190312850635E-002
 chl2c          70   3.2658010878182209E-002   3.2658010878182209E-002  0.48694062500000002        7.4645509061215952E-005   1.1855994301541532E-016
 chl          70   2.5281306126242798E-005   7.7412265616986630E-004   3.2658010878182209E-002
 chl2c          71   4.3481058864416305E-002   4.3481058864416305E-002  0.23986107500000001        5.0619001652762079E-005   1.0136352230845410E-016
 chl          71   3.3659672781200262E-005   7.7412265616986630E-004   4.3481058864416305E-002
 chl2c          72   3.7549776402781669E-002   3.7549776402781669E-002  0.62790522500000001        1.1975819283298196E-004   1.5985705468837323E-016
 chl          72   2.9068132647505912E-005   7.7412265616986630E-004   3.7549776402781669E-002
 chl2c          73   3.1852614277819484E-002   3.1852614277819484E-002  0.35362212500000001        7.4645509061215952E-005   1.1131913056184329E-016
 chl          73   2.4657830370699827E-005   7.7412265616986630E-004   3.1852614277819484E-002
 chl2c          74   3.7616827685877569E-002   3.7616827685877569E-002  0.64719590000000005        1.1975819283298196E-004   1.4951698779032573E-006
 chl          74   2.9120038564875708E-005   7.7412265616986630E-004   3.7616827685877569E-002
 chl2c          75   3.7826830779512356E-002   3.7826830779512356E-002  0.71554212500000003        1.1975819283298196E-004   1.2590648796216309E-016
 chl          75   2.9282606717524160E-005   7.7412265616986630E-004   3.7826830779512356E-002
 chl2c          76   4.7810156300645175E-002   3.7257729557919804E-002  0.55513977500000000        1.1975819283298196E-004   3.1326186476827880E-006
 chl          76   3.7010925187351914E-005   7.7412265616986630E-004   4.7810156300645175E-002
 chl2c          77   3.7138172437479272E-002   3.7138172437479272E-002  0.52973029999999999        1.1975819283298196E-004   5.7598774008064851E-007
 chl          77   2.8749500692595971E-005   7.7412265616986630E-004   3.7138172437479272E-002
 chl2c          78   6.8987827398583251E-002   4.7515248899399322E-002  0.45117492500000000        5.0619001652762079E-005   2.0612230065396244E-006
 chl          78   5.3405040189179541E-005   7.7412265616986630E-004   6.8987827398583251E-002
 prod   5.0395475338817269E-007   88.997304575603437        10.000000000000000     
 chl2c           1   3.7477407714772232E-002   3.7477407714772232E-002  0.60826437499999997        1.0257899594305339E-004   1.6576106944698135E-008
 chl           1   2.5708410713686173E-005   6.8597088969824481E-004   3.7477407714772232E-002
 chl2c           2   5.5350496281117906E-002   3.2640259920490348E-002  0.48302390000000001        6.4672903520259891E-005   2.0214837747069687E-006
 chl           2   3.7968829179197844E-005   6.8597088969824481E-004   5.5350496281117906E-002
 chl2c           3   3.7922212503796585E-002   3.7922212503796585E-002  0.75128689999999998        1.0257899594305339E-004   1.6105804769270462E-016
 chl           3   2.6013533850555247E-005   6.8597088969824481E-004   3.7922212503796585E-002
 chl2c           4   6.2594535826090689E-002   3.7976509103863923E-002  0.77318742499999993        1.0257899594305339E-004   3.4932429904672993E-006
 chl           4   4.2938029430872088E-005   6.8597088969824481E-004   6.2594535826090689E-002
 chl2c           5   7.6137834140915892E-002   2.5710500362372445E-002  0.48489679999999996        5.4135062074268254E-005   2.4447316118014919E-006
 chl           5   5.2228337825341474E-005   6.8597088969824481E-004   7.6137834140915892E-002
 chl2c           6   3.1261039902252048E-002   3.1261039902252048E-002  0.29222855000000003        6.4672903520259891E-005   1.4545011440816798E-016
 chl           6   2.1444163354640168E-005   6.8597088969824481E-004   3.1261039902252048E-002
 chl2c           7   6.8435446041137438E-002   4.3064391842467263E-002  0.22770740000000000        4.4149583524736757E-005   2.1598100320207456E-006
 chl           7   4.6944723807735275E-005   6.8597088969824481E-004   6.8435446041137438E-002
 chl2c           8   4.7969800906495587E-002   4.7969800906495587E-002  0.49578364999999996        4.4149583524736757E-005   2.1526837911488770E-007
 chl           8   3.2905887006476445E-005   6.8597088969824481E-004   4.7969800906495587E-002
 chl2c           9   6.0426926096542093E-002   2.4803669054600401E-002  0.28700202499999999        5.4135062074268254E-005   2.0718195582290197E-006
 chl           9   4.1451112256175065E-005   6.8597088969824481E-004   6.0426926096542093E-002
 chl2c          10   8.9822151107654513E-002   2.5387016219684602E-002  0.39094662499999999        5.4135062074268254E-005   3.1564833950899801E-006
 chl          10   6.1615380909927947E-005   6.8597088969824481E-004   8.9822151107654513E-002
 chl2c          11   2.1820572217820047E-002   2.1820572217820047E-002  0.49737575000000001        1.0257899594305339E-004   1.4857673943416756E-016
 chl          11   1.4968277337982820E-005   6.8597088969824481E-004   2.1820572217820047E-002
 chl2c          12   4.5290941298723353E-002   4.5290941298723353E-002  0.30768942500000002        4.4149583524736757E-005   1.0120327079459668E-016
 chl          12   3.1068267297956238E-005   6.8597088969824481E-004   4.5290941298723353E-002
 chl2c          13   3.7935816987997487E-002   3.7935816987997487E-002  0.75666275000000005        1.0257899594305339E-004   1.3388184104024436E-016
 chl          13   2.6022866130686425E-005   6.8597088969824481E-004   3.7935816987997487E-002
 chl2c          14   4.6856526101924839E-002   4.6856526101924839E-002  0.39804095000000000        4.4149583524736757E-005   1.1674311738707151E-016
 chl          14   3.2142212898306411E-005   6.8597088969824481E-004   4.6856526101924839E-002
 chl2c          15   5.5937397726329267E-002   2.0954299823745293E-002  0.25607262500000000        1.0257899594305339E-004   3.6708811302070541E-006
 chl          15   3.8371426485734663E-005   6.8597088969824481E-004   5.5937397726329267E-002
 chl2c          16   3.7823443882273475E-002   3.7823443882273475E-002  0.71433214999999994        1.0257899594305339E-004   1.6768210318951094E-016
 chl          16   2.5945781451374770E-005   6.8597088969824481E-004   3.7823443882273475E-002
 chl2c          17   3.7542254757581245E-002   3.7542254757581245E-002  0.62580860000000005        1.0257899594305339E-004   1.6759798644231985E-016
 chl          17   2.5752893897336170E-005   6.8597088969824481E-004   3.7542254757581245E-002
 chl2c          18   2.5694475239060960E-002   2.5694475239060960E-002  0.47925950000000000        5.4135062074268254E-005   1.5512002967962947E-016
 chl          18   1.7625662040068168E-005   6.8597088969824481E-004   2.5694475239060960E-002
 chl2c          19   3.9110624139970497E-002   3.7570220750293731E-002  0.63367130000000005        1.0257899594305339E-004   2.1379180344097686E-006
 chl          19   2.6828749637949214E-005   6.8597088969824481E-004   3.9110624139970497E-002
 chl2c          20   3.7020645196759419E-002   3.7020645196759419E-002  0.50678202500000002        1.0257899594305339E-004   1.4745238530930529E-016
 chl          20   2.5395084922824113E-005   6.8597088969824481E-004   3.7020645196759419E-002
 chl2c          21   3.7838475073783531E-002   3.7838475073783531E-002  0.71973185000000006        1.0257899594305339E-004   1.5473530118112859E-006
 chl          21   2.5956092411188148E-005   6.8597088969824481E-004   3.7838475073783531E-002
 chl2c          22   6.3448089607596569E-002   3.7613353106285476E-002  0.64616892500000001        1.0257899594305339E-004   3.6085482789603171E-006
 chl          22   4.3523542477776976E-005   6.8597088969824481E-004   6.3448089607596569E-002
 chl2c          23   3.2286562315070731E-002   3.2286562315070731E-002  0.41564179999999995        6.4672903520259891E-005   1.3130269079350524E-016
 chl          23   2.2147641876566892E-005   6.8597088969824481E-004   3.2286562315070731E-002
 chl2c          24   3.7348402796863071E-002   3.7348402796863071E-002  0.57597492500000003        1.0257899594305339E-004   1.1965227191972596E-016
 chl          24   2.5619917095372578E-005   6.8597088969824481E-004   3.7348402796863071E-002
 chl2c          25   4.5426679235459781E-002   4.5426679235459781E-002  0.31406487500000002        4.4149583524736757E-005   1.0602529484567277E-016
 chl          25   3.1161379571185127E-005   6.8597088969824481E-004   4.5426679235459781E-002
 chl2c          26   4.7955660680174553E-002   4.7955660680174553E-002  0.49427735000000000        4.4149583524736757E-005   9.7964118105193469E-017
 chl          26   3.2896187222846477E-005   6.8597088969824481E-004   4.7955660680174553E-002
 chl2c          27   4.5333133499525620E-002   4.5333133499525620E-002  0.30964730000000001        4.4149583524736757E-005   1.1590169535554438E-016
 chl          27   3.1097209919478898E-005   6.8597088969824481E-004   4.5333133499525620E-002
 chl2c          28   3.1209236063453518E-002   3.1209236063453518E-002  0.28776342500000002        6.4672903520259891E-005   1.1530133467215197E-016
 chl          28   2.1408627429249756E-005   6.8597088969824481E-004   3.1209236063453518E-002
 chl2c          29   5.6215867203588843E-002   3.7743217595736761E-002  0.68676297499999994        1.0257899594305339E-004   3.1403401953068525E-006
 chl          29   3.8562448440804219E-005   6.8597088969824481E-004   5.6215867203588843E-002
 chl2c          30   2.5380056985171612E-002   2.5380056985171612E-002  0.38930277499999999        5.4135062074268254E-005   1.7011334678052356E-016
 chl          30   1.7409980270710323E-005   6.8597088969824481E-004   2.5380056985171612E-002
 chl2c          31   5.1625023721390981E-002   3.7576959810037038E-002  0.63559385000000002        1.0257899594305339E-004   2.8818988565624760E-006
 chl          31   3.5413263452855561E-005   6.8597088969824481E-004   5.1625023721390981E-002
 chl2c          32   5.7667386092225978E-002   2.0893126428578448E-002  0.24722667500000001        1.0257899594305339E-004   3.8575269753635135E-006
 chl          32   3.9558148144256441E-005   6.8597088969824481E-004   5.7667386092225978E-002
 chl2c          33   4.3136889441437225E-002   3.7458922634011876E-002  0.60343137499999999        1.0257899594305339E-004   2.3828067002502140E-006
 chl          33   2.9590650428957516E-005   6.8597088969824481E-004   4.3136889441437225E-002
 chl2c          34   5.7196974931713794E-002   2.5350269098008315E-002  0.38241020000000003        5.4135062074268254E-005   1.8204676801219440E-006
 chl          34   3.9235459781955916E-005   6.8597088969824481E-004   5.7196974931713794E-002
 chl2c          35   2.5740370148566064E-002   2.5740370148566064E-002  0.49574644999999995        5.4135062074268254E-005   1.2267112843243687E-016
 chl          35   1.7657144611974004E-005   6.8597088969824481E-004   2.5740370148566064E-002
 chl2c          36   3.7770393924465726E-002   3.7770393924465726E-002  0.69587337500000002        1.0257899594305339E-004   1.2752056188941931E-016
 chl          36   2.5909390724618935E-005   6.8597088969824481E-004   3.7770393924465726E-002
 chl2c          37   2.1353674699533250E-002   2.1353674699533250E-002  0.33194060000000003        1.0257899594305339E-004   1.1227907217373181E-016
 chl          37   1.4647999231965724E-005   6.8597088969824481E-004   2.1353674699533250E-002
 chl2c          38   2.1543295686358745E-002   2.1543295686358745E-002  0.38455722500000000        1.0257899594305339E-004   1.7365689199578887E-016
 chl          38   1.4778073709003868E-005   6.8597088969824481E-004   2.1543295686358745E-002
 chl2c          39   2.5670077108751441E-002   2.5670077108751441E-002  0.47091117500000002        5.4135062074268254E-005   1.3966516455514725E-016
 chl          39   1.7608925632912774E-005   6.8597088969824481E-004   2.5670077108751441E-002
 chl2c          40   3.7687445774703773E-002   3.7687445774703773E-002  0.66875547499999999        1.0257899594305339E-004   1.6800688137357505E-016
 chl          40   2.5852490708527905E-005   6.8597088969824481E-004   3.7687445774703773E-002
 chl2c          41   2.5582381488167241E-002   2.5582381488167241E-002  0.44304987499999998        5.4135062074268254E-005   1.0106406706871652E-016
 chl          41   1.7548768990037990E-005   6.8597088969824481E-004   2.5582381488167241E-002
 chl2c          42   3.7949995630725070E-002   3.7949995630725070E-002  0.76234377499999995        1.0257899594305339E-004   1.4164006188378136E-016
 chl          42   2.6032592266852980E-005   6.8597088969824481E-004   3.7949995630725070E-002
 chl2c          43   2.1185090152268007E-002   2.1185090152268007E-002  0.29539925000000000        1.0257899594305339E-004   1.7290999036140847E-016
 chl          43   1.4532355140088809E-005   6.8597088969824481E-004   2.1185090152268007E-002
 chl2c          44   3.7536352708156646E-002   3.7536352708156646E-002  0.62417262500000004        1.0257899594305339E-004   1.2094907935736192E-016
 chl          44   2.5748845263241336E-005   6.8597088969824481E-004   3.7536352708156646E-002
 chl2c          45   4.6544927192009838E-002   4.6544927192009838E-002  0.37662252499999999        4.4149583524736757E-005   3.5568642270081867E-007
 chl          45   3.1928465116843013E-005   6.8597088969824481E-004   4.6544927192009838E-002
 chl2c          46   5.5921623718420042E-002   3.7083195475449568E-002  0.51876034999999998        1.0257899594305339E-004   3.2147359426765456E-006
 chl          46   3.8360605975495069E-005   6.8597088969824481E-004   5.5921623718420042E-002
 chl2c          47   3.7519784612651236E-002   3.7519784612651236E-002  0.61962282499999999        1.0257899594305339E-004   1.5457059291676738E-016
 chl          47   2.5737480032026882E-005   6.8597088969824481E-004   3.7519784612651236E-002
 chl2c          48   3.7823212136301673E-002   3.7823212136301673E-002  0.71424949999999998        1.0257899594305339E-004   1.4863521984115641E-016
 chl          48   2.5945622480384309E-005   6.8597088969824481E-004   3.7823212136301673E-002
 chl2c          49   3.7152990741888416E-002   3.7152990741888416E-002  0.53276120000000005        1.0257899594305339E-004   1.3829346768797300E-016
 chl          49   2.5485870114163850E-005   6.8597088969824481E-004   3.7152990741888416E-002
 chl2c          50   4.7623725393318210E-002   2.1533072915600981E-002  0.38132569999999999        1.0257899594305339E-004   2.7911881532635011E-006
 chl          50   3.2668489278799387E-005   6.8597088969824481E-004   4.7623725393318210E-002
 chl2c          51   2.0700971146093840E-002   2.0700971146093840E-002  0.22275920000000002        1.0257899594305339E-004   1.8460971078662353E-016
 chl          51   1.4200263594703686E-005   6.8597088969824481E-004   2.0700971146093840E-002
 chl2c          52   3.7581825176985564E-002   3.7581825176985564E-002  0.63698869999999996        1.0257899594305339E-004   1.6453462288862541E-016
 chl          52   2.5780038053140683E-005   6.8597088969824481E-004   3.7581825176985564E-002
 chl2c          53   3.7925801262726190E-002   3.7925801262726190E-002  0.75269794999999995        1.0257899594305339E-004   1.4729362491249534E-016
 chl          53   2.6015995634711101E-005   6.8597088969824481E-004   3.7925801262726190E-002
 chl2c          54   3.7082433371327092E-002   3.7082433371327092E-002  0.51861124999999997        1.0257899594305339E-004   1.2075424487291322E-016
 chl          54   2.5437469811905129E-005   6.8597088969824481E-004   3.7082433371327092E-002
 chl2c          55   6.2329674456180394E-002   3.7357235588660491E-002  0.57808280000000001        1.0257899594305339E-004   3.5832036018525667E-006
 chl          55   4.2756342241308029E-005   6.8597088969824481E-004   6.2329674456180394E-002
 chl2c          56   3.7507394187257688E-002   3.7507394187257688E-002  0.61626080000000005        1.0257899594305339E-004   1.6497089104189483E-016
 chl          56   2.5728980560895933E-005   6.8597088969824481E-004   3.7507394187257688E-002
 chl2c          57   4.5980397169512598E-002   3.7727617852646313E-002  0.68163462500000005        1.0257899594305339E-004   2.5289012421161478E-006
 chl          57   3.1541213955049216E-005   6.8597088969824481E-004   4.5980397169512598E-002
 chl2c          58   4.3739897470378451E-002   3.7765358178394853E-002  0.69416802499999997        1.0257899594305339E-004   2.3942610481371425E-006
 chl          58   3.0004296383065513E-005   6.8597088969824481E-004   4.3739897470378451E-002
 chl2c          59   3.7173699120809672E-002   3.7173699120809672E-002  0.53705127500000005        1.0257899594305339E-004   1.6782215380459957E-016
 chl          59   2.5500075459276671E-005   6.8597088969824481E-004   3.7173699120809672E-002
 chl2c          60   3.7607757740906807E-002   3.7607757740906807E-002  0.64452155000000000        1.0257899594305339E-004   1.4742046371043276E-006
 chl          60   2.5797827037085897E-005   6.8597088969824481E-004   3.7607757740906807E-002
 chl2c          61   3.7805373434125003E-002   3.7805373434125003E-002  0.70794139999999994        1.0257899594305339E-004   1.4414611734605761E-016
 chl          61   2.5933385649981117E-005   6.8597088969824481E-004   3.7805373434125003E-002
 chl2c          62   3.7956103087269030E-002   3.7956103087269030E-002  0.76481592499999995        1.0257899594305339E-004   1.1757274161161759E-016
 chl          62   2.6036781804252233E-005   6.8597088969824481E-004   3.7956103087269030E-002
 chl2c          63   4.5152759250801242E-002   3.7855601011927406E-002  0.72597904999999996        1.0257899594305339E-004   2.4694515686807696E-006
 chl          63   3.0973478435602784E-005   6.8597088969824481E-004   4.5152759250801242E-002
 chl2c          64   2.5708982294816416E-002   2.5708982294816416E-002  0.48435739999999999        5.4135062074268254E-005   9.8320451510482259E-017
 chl          64   1.7635613458011640E-005   6.8597088969824481E-004   2.5708982294816416E-002
 chl2c          65   3.7953597170552002E-002   3.7953597170552002E-002  0.76379975000000000        1.0257899594305339E-004   1.2994422854628656E-016
 chl          65   2.6035062818332344E-005   6.8597088969824481E-004   3.7953597170552002E-002
 chl2c          66   3.1840477731474713E-002   3.1840477731474713E-002  0.35213202499999996        6.4672903520259891E-005   1.0551650658602612E-016
 chl          66   2.1841640837876860E-005   6.8597088969824481E-004   3.1840477731474713E-002
 chl2c          67   3.7937587124568600E-002   3.7937587124568600E-002  0.75736760000000003        1.0257899594305339E-004   1.3750469856829534E-016
 chl          67   2.6024080392845000E-005   6.8597088969824481E-004   3.7937587124568600E-002
 chl2c          68   3.9886376506685105E-002   3.7855407263856986E-002  0.72590779999999999        1.0257899594305339E-004   2.1646955146600926E-006
 chl          68   2.7360893179129950E-005   6.8597088969824481E-004   3.9886376506685105E-002
 chl2c          69   4.6100618070138800E-002   2.1732330561541505E-002  0.45524217500000003        1.0257899594305339E-004   2.6308984935729606E-006
 chl          69   3.1623681993212092E-005   6.8597088969824481E-004   4.6100618070138800E-002
 chl2c          70   3.2658010878182209E-002   3.2658010878182209E-002  0.48694062500000002        6.4672903520259891E-005   1.3717482180800679E-016
 chl          70   2.2402444777881606E-005   6.8597088969824481E-004   3.2658010878182209E-002
 chl2c          71   4.3481058864416305E-002   4.3481058864416305E-002  0.23986107500000001        4.4149583524736757E-005   1.1538825058314201E-016
 chl          71   2.9826740634245406E-005   6.8597088969824481E-004   4.3481058864416305E-002
 chl2c          72   3.7549776402781669E-002   3.7549776402781669E-002  0.62790522500000001        1.0257899594305339E-004   1.6549311696634924E-016
 chl          72   2.5758053526986300E-005   6.8597088969824481E-004   3.7549776402781669E-002
 chl2c          73   3.1852614277819484E-002   3.1852614277819484E-002  0.35362212500000001        6.4672903520259891E-005   1.2633442323908932E-016
 chl          73   2.1849966155370846E-005   6.8597088969824481E-004   3.1852614277819484E-002
 chl2c          74   3.7616827685877569E-002   3.7616827685877569E-002  0.64719590000000005        1.0257899594305339E-004   1.7457606542535363E-006
 chl          74   2.5804048755307004E-005   6.8597088969824481E-004   3.7616827685877569E-002
 chl2c          75   3.7826830779512356E-002   3.7826830779512356E-002  0.71554212500000003        1.0257899594305339E-004   1.3038693219213650E-016
 chl          75   2.5948104764287041E-005   6.8597088969824481E-004   3.7826830779512356E-002
 chl2c          76   5.6065376916122164E-002   3.7257729557919804E-002  0.55513977500000000        1.0257899594305339E-004   3.1986023186054167E-006
 chl          76   3.8459216484419758E-005   6.8597088969824481E-004   5.6065376916122164E-002
 chl2c          77   3.7138172437479272E-002   3.7138172437479272E-002  0.52973029999999999        1.0257899594305339E-004   7.5959139917208685E-007
 chl          77   2.5475705188704488E-005   6.8597088969824481E-004   3.7138172437479272E-002
 chl2c          78   7.8898060777142079E-002   4.7515248899399322E-002  0.45117492500000000        4.4149583524736757E-005   2.1107745640426098E-006
 chl          78   5.4121772946762346E-005   6.8597088969824481E-004   7.8898060777142079E-002
 prod   5.9214605824591295E-007   75.581568099060533        10.000000000000000     
 chl2c           1   3.7477407714772232E-002   3.7477407714772232E-002  0.60826437499999997        8.8070763249531044E-005   1.4162376423006938E-007
 chl           1   2.0544166965728358E-005   5.4817470626792025E-004   3.7477407714772232E-002
 chl2c           2   4.9889035885894939E-002   3.2640259920490348E-002  0.48302390000000001        5.6085699796493962E-005   1.5601729221488052E-006
 chl           2   2.7347907592740191E-005   5.4817470626792025E-004   4.9889035885894939E-002
 chl2c           3   3.7922212503796585E-002   3.7922212503796585E-002  0.75128689999999998        8.8070763249531044E-005   1.4675341203464547E-016
 chl           3   2.0787997700298347E-005   5.4817470626792025E-004   3.7922212503796585E-002
 chl2c           4   6.6540386044035851E-002   3.7976509103863923E-002  0.77318742499999993        8.8070763249531044E-005   3.2060428253162204E-006
 chl           4   3.6475756574643374E-005   5.4817470626792025E-004   6.6540386044035851E-002
 chl2c           5   7.6636561188972677E-002   2.5710500362372445E-002  0.48489679999999996        4.6468922521134241E-005   2.1148562287295684E-006
 chl           5   4.2010224419148594E-005   5.4817470626792025E-004   7.6636561188972677E-002
 chl2c           6   3.1261039902252048E-002   3.1261039902252048E-002  0.29222855000000003        5.6085699796493962E-005   1.3412662851554101E-016
 chl           6   1.7136511366046750E-005   5.4817470626792025E-004   3.1261039902252048E-002
 chl2c           7   6.4869955132815835E-002   4.3064391842467263E-002  0.22770740000000000        3.8530039429788765E-005   1.7475753920884007E-006
 chl           7   3.5560068600544487E-005   5.4817470626792025E-004   6.4869955132815835E-002
 chl2c           8   4.7969800906495587E-002   4.7969800906495587E-002  0.49578364999999996        3.8530039429788765E-005   3.1637978571006909E-007
 chl           8   2.6295831521648833E-005   5.4817470626792025E-004   4.7969800906495587E-002
 chl2c           9   6.8608981235355665E-002   2.4803669054600401E-002  0.28700202499999999        4.6468922521134241E-005   2.0948828306382777E-006
 chl           9   3.7609708136032341E-005   5.4817470626792025E-004   6.8608981235355665E-002
 chl2c          10   9.2372982022319791E-002   2.5387016219684602E-002  0.39094662499999999        4.6468922521134241E-005   2.8102410411638008E-006
 chl          10   5.0636532287177030E-005   5.4817470626792025E-004   9.2372982022319791E-002
 chl2c          11   2.1820572217820047E-002   2.1820572217820047E-002  0.49737575000000001        8.8070763249531044E-005   1.3597697913234002E-016
 chl          11   1.1961485766101446E-005   5.4817470626792025E-004   2.1820572217820047E-002
 chl2c          12   4.5290941298723353E-002   4.5290941298723353E-002  0.30768942500000002        3.8530039429788765E-005   8.2950226927832448E-017
 chl          12   2.4827348443025292E-005   5.4817470626792025E-004   4.5290941298723353E-002
 chl2c          13   3.7935816987997487E-002   3.7935816987997487E-002  0.75666275000000005        8.8070763249531044E-005   1.2184762648199044E-016
 chl          13   2.0795455334429100E-005   5.4817470626792025E-004   3.7935816987997487E-002
 chl2c          14   4.6856526101924839E-002   4.6856526101924839E-002  0.39804095000000000        3.8530039429788765E-005   1.0640710183567190E-016
 chl          14   2.5685562432657788E-005   5.4817470626792025E-004   4.6856526101924839E-002
 chl2c          15   5.7962804010005711E-002   2.0954299823745293E-002  0.25607262500000000        8.8070763249531044E-005   3.2991973827342490E-006
 chl          15   3.1773743062649912E-005   5.4817470626792025E-004   5.7962804010005711E-002
 chl2c          16   3.7823443882273475E-002   3.7823443882273475E-002  0.71433214999999994        8.8070763249531044E-005   1.5283322766825365E-016
 chl          16   2.0733855240206426E-005   5.4817470626792025E-004   3.7823443882273475E-002
 chl2c          17   3.7542254757581245E-002   3.7542254757581245E-002  0.62580860000000005        8.8070763249531044E-005   1.5275599935755670E-016
 chl          17   2.0579714474372529E-005   5.4817470626792025E-004   3.7542254757581245E-002
 chl2c          18   2.5694475239060960E-002   2.5694475239060960E-002  0.47925950000000000        4.6468922521134241E-005   1.4203930611628745E-016
 chl          18   1.4085061416880592E-005   5.4817470626792025E-004   2.5694475239060960E-002
 chl2c          19   4.2766732043234452E-002   3.7570220750293731E-002  0.63367130000000005        8.8070763249531044E-005   2.0195495836780336E-006
 chl          19   2.3443640775838899E-005   5.4817470626792025E-004   4.2766732043234452E-002
 chl2c          20   3.7020645196759419E-002   3.7020645196759419E-002  0.50678202500000002        8.8070763249531044E-005   1.3427690600464387E-016
 chl          20   2.0293781306582488E-005   5.4817470626792025E-004   3.7020645196759419E-002
 chl2c          21   3.7838475073783531E-002   3.7838475073783531E-002  0.71973185000000006        8.8070763249531044E-005   1.5768529417051108E-006
 chl          21   2.0742094959197310E-005   5.4817470626792025E-004   3.7838475073783531E-002
 chl2c          22   6.6173961452470537E-002   3.7613353106285476E-002  0.64616892500000001        8.8070763249531044E-005   3.2464651462337076E-006
 chl          22   3.6274891881792716E-005   5.4817470626792025E-004   6.6173961452470537E-002
 chl2c          23   3.2286562315070731E-002   3.2286562315070731E-002  0.41564179999999995        5.6085699796493962E-005   1.0893525504860360E-016
 chl          23   1.7698676813464803E-005   5.4817470626792025E-004   3.2286562315070731E-002
 chl2c          24   3.7348402796863071E-002   3.7348402796863071E-002  0.57597492500000003        8.8070763249531044E-005   1.0883070571837350E-016
 chl          24   2.0473449732746387E-005   5.4817470626792025E-004   3.7348402796863071E-002
 chl2c          25   4.5426679235459781E-002   4.5426679235459781E-002  0.31406487500000002        3.8530039429788765E-005   8.7070850132834621E-017
 chl          25   2.4901756546625197E-005   5.4817470626792025E-004   4.5426679235459781E-002
 chl2c          26   4.7955660680174553E-002   4.7955660680174553E-002  0.49427735000000000        3.8530039429788765E-005   8.0191166857633759E-017
 chl          26   2.6288080207238739E-005   5.4817470626792025E-004   4.7955660680174553E-002
 chl2c          27   4.5333133499525620E-002   4.5333133499525620E-002  0.30964730000000001        3.8530039429788765E-005   1.0560413485228492E-016
 chl          27   2.4850477140306873E-005   5.4817470626792025E-004   4.5333133499525620E-002
 chl2c          28   3.1209236063453518E-002   3.1209236063453518E-002  0.28776342500000002        5.6085699796493962E-005   1.0503154127466547E-016
 chl          28   1.7108113811929817E-005   5.4817470626792025E-004   3.1209236063453518E-002
 chl2c          29   5.8196417709099300E-002   3.7743217595736761E-002  0.68676297499999994        8.8070763249531044E-005   2.7999715549011344E-006
 chl          29   3.1901804183530699E-005   5.4817470626792025E-004   5.8196417709099300E-002
 chl2c          30   2.5380056985171612E-002   2.5380056985171612E-002  0.38930277499999999        4.6468922521134241E-005   1.5595571264256332E-016
 chl          30   1.3912705282909526E-005   5.4817470626792025E-004   2.5380056985171612E-002
 chl2c          31   5.1362744810382097E-002   3.7576959810037038E-002  0.63559385000000002        8.8070763249531044E-005   2.4606225481058624E-006
 chl          31   2.8155757549545352E-005   5.4817470626792025E-004   5.1362744810382097E-002
 chl2c          32   6.0038739972431997E-002   2.0893126428578448E-002  0.24722667500000001        8.8070763249531044E-005   3.4918116387215152E-006
 chl          32   3.2911718649083951E-005   5.4817470626792025E-004   6.0038739972431997E-002
 chl2c          33   4.6585735607052488E-002   3.7458922634011876E-002  0.60343137499999999        8.8070763249531044E-005   2.2230426053150484E-006
 chl          33   2.5537121932670991E-005   5.4817470626792025E-004   4.6585735607052488E-002
 chl2c          34   5.3636602091056064E-002   2.5350269098008315E-002  0.38241020000000003        4.6468922521134241E-005   1.4495272944144653E-006
 chl          34   2.9402228596473975E-005   5.4817470626792025E-004   5.3636602091056064E-002
 chl2c          35   2.5740370148566064E-002   2.5740370148566064E-002  0.49574644999999995        4.6468922521134241E-005   1.1203983757763838E-016
 chl          35   1.4110219845417745E-005   5.4817470626792025E-004   2.5740370148566064E-002
 chl2c          36   3.7770393924465726E-002   3.7770393924465726E-002  0.69587337500000002        8.8070763249531044E-005   1.1602644739569973E-016
 chl          36   2.0704774595167637E-005   5.4817470626792025E-004   3.7770393924465726E-002
 chl2c          37   2.1353674699533250E-002   2.1353674699533250E-002  0.33194060000000003        8.8070763249531044E-005   1.0246578514682333E-016
 chl          37   1.1705544356157360E-005   5.4817470626792025E-004   2.1353674699533250E-002
 chl2c          38   2.1543295686358745E-002   2.1543295686358745E-002  0.38455722500000000        8.8070763249531044E-005   1.5924991133445206E-016
 chl          38   1.1809489784912658E-005   5.4817470626792025E-004   2.1543295686358745E-002
 chl2c          39   2.5670077108751441E-002   2.5670077108751441E-002  0.47091117500000002        4.6468922521134241E-005   1.2773105227053357E-016
 chl          39   1.4071686978964684E-005   5.4817470626792025E-004   2.5670077108751441E-002
 chl2c          40   3.7687445774703773E-002   3.7687445774703773E-002  0.66875547499999999        8.8070763249531044E-005   1.5313141480497801E-016
 chl          40   2.0659304517536414E-005   5.4817470626792025E-004   3.7687445774703773E-002
 chl2c          41   2.5582381488167241E-002   2.5582381488167241E-002  0.44304987499999998        4.6468922521134241E-005   9.2151427674866999E-017
 chl          41   1.4023614457909957E-005   5.4817470626792025E-004   2.5582381488167241E-002
 chl2c          42   3.7949995630725070E-002   3.7949995630725070E-002  0.76234377499999995        8.8070763249531044E-005   1.2895156262489997E-016
 chl          42   2.0803227707741572E-005   5.4817470626792025E-004   3.7949995630725070E-002
 chl2c          43   2.1185090152268007E-002   2.1185090152268007E-002  0.29539925000000000        8.8070763249531044E-005   4.5464690941114403E-008
 chl          43   1.1613130571478924E-005   5.4817470626792025E-004   2.1185090152268007E-002
 chl2c          44   3.7536352708156646E-002   3.7536352708156646E-002  0.62417262500000004        8.8070763249531044E-005   1.1001632629185702E-016
 chl          44   2.0576479120162823E-005   5.4817470626792025E-004   3.7536352708156646E-002
 chl2c          45   4.6544927192009838E-002   4.6544927192009838E-002  0.37662252499999999        3.8530039429788765E-005   1.2431145069290556E-007
 chl          45   2.5514751791741727E-005   5.4817470626792025E-004   4.6544927192009838E-002
 chl2c          46   5.7032789175899525E-002   3.7083195475449568E-002  0.51876034999999998        8.8070763249531044E-005   2.8216773468517058E-006
 chl          46   3.1263932454138942E-005   5.4817470626792025E-004   5.7032789175899525E-002
 chl2c          47   3.7519784612651236E-002   3.7519784612651236E-002  0.61962282499999999        8.8070763249531044E-005   1.4080247171060392E-016
 chl          47   2.0567396909275725E-005   5.4817470626792025E-004   3.7519784612651236E-002
 chl2c          48   3.7823212136301673E-002   3.7823212136301673E-002  0.71424949999999998        8.8070763249531044E-005   1.3536097453930599E-016
 chl          48   2.0733728202926405E-005   5.4817470626792025E-004   3.7823212136301673E-002
 chl2c          49   3.7152990741888416E-002   3.7152990741888416E-002  0.53276120000000005        8.8070763249531044E-005   1.2588660391454574E-016
 chl          49   2.0366329786909442E-005   5.4817470626792025E-004   3.7152990741888416E-002
 chl2c          50   5.0503759366984591E-002   2.1533072915600981E-002  0.38132569999999999        8.8070763249531044E-005   2.5634641175981284E-006
 chl          50   2.7684883456422504E-005   5.4817470626792025E-004   5.0503759366984591E-002
 chl2c          51   2.0700971146093840E-002   2.0700971146093840E-002  0.22275920000000002        8.8070763249531044E-005   1.6944467175139940E-016
 chl          51   1.1347748777470683E-005   5.4817470626792025E-004   2.0700971146093840E-002
 chl2c          52   3.7581825176985564E-002   3.7581825176985564E-002  0.63698869999999996        8.8070763249531044E-005   1.4994389688152942E-016
 chl          52   2.0601405977406391E-005   5.4817470626792025E-004   3.7581825176985564E-002
 chl2c          53   3.7925801262726190E-002   3.7925801262726190E-002  0.75269794999999995        8.8070763249531044E-005   1.3413141068702132E-016
 chl          53   2.0789964967170446E-005   5.4817470626792025E-004   3.7925801262726190E-002
 chl2c          54   3.7082433371327092E-002   3.7082433371327092E-002  0.51861124999999997        8.8070763249531044E-005   1.0983818812154178E-016
 chl          54   2.0327652021026953E-005   5.4817470626792025E-004   3.7082433371327092E-002
 chl2c          55   6.4933091713912469E-002   3.7357235588660491E-002  0.57808280000000001        8.8070763249531044E-005   3.2211712012579967E-006
 chl          55   3.5594678477341893E-005   5.4817470626792025E-004   6.4933091713912469E-002
 chl2c          56   3.7507394187257688E-002   3.7507394187257688E-002  0.61626080000000005        8.8070763249531044E-005   1.5034433447011742E-016
 chl          56   2.0560604791475082E-005   5.4817470626792025E-004   3.7507394187257688E-002
 chl2c          57   4.4033605535935008E-002   3.7727617852646313E-002  0.68163462500000005        8.8070763249531044E-005   2.0729491669152792E-006
 chl          57   2.4138108780578639E-005   5.4817470626792025E-004   4.4033605535935008E-002
 chl2c          58   4.9121190929429438E-002   3.7765358178394853E-002  0.69416802499999997        8.8070763249531044E-005   2.3277911310783659E-006
 chl          58   2.6926994409270411E-005   5.4817470626792025E-004   4.9121190929429438E-002
 chl2c          59   3.7173699120809672E-002   3.7173699120809672E-002  0.53705127500000005        8.8070763249531044E-005   1.2381594557179061E-008
 chl          59   2.0377681596441886E-005   5.4817470626792025E-004   3.7173699120809672E-002
 chl2c          60   3.7607757740906807E-002   3.7607757740906807E-002  0.64452155000000000        8.8070763249531044E-005   1.4742126752016128E-006
 chl          60   2.0615621553016692E-005   5.4817470626792025E-004   3.7607757740906807E-002
 chl2c          61   3.7805373434125003E-002   3.7805373434125003E-002  0.70794139999999994        8.8070763249531044E-005   1.3124731378829607E-016
 chl          61   2.0723949477600510E-005   5.4817470626792025E-004   3.7805373434125003E-002
 chl2c          62   3.7956103087269030E-002   3.7956103087269030E-002  0.76481592499999995        8.8070763249531044E-005   1.0692975257249249E-016
 chl          62   2.0806575660938602E-005   5.4817470626792025E-004   3.7956103087269030E-002
 chl2c          63   4.7965993695460743E-002   3.7855601011927406E-002  0.72597904999999996        8.8070763249531044E-005   2.2616283611054212E-006
 chl          63   2.6293744504858107E-005   5.4817470626792025E-004   4.7965993695460743E-002
 chl2c          64   2.5708982294816416E-002   2.5708982294816416E-002  0.48435739999999999        4.6468922521134241E-005   8.9630940547013006E-017
 chl          64   1.4093013817908151E-005   5.4817470626792025E-004   2.5708982294816416E-002
 chl2c          65   3.7953597170552002E-002   3.7953597170552002E-002  0.76379975000000000        8.8070763249531044E-005   1.1824395010271416E-016
 chl          65   2.0805201980778313E-005   5.4817470626792025E-004   3.7953597170552002E-002
 chl2c          66   3.1840477731474713E-002   3.1840477731474713E-002  0.35213202499999996        5.6085699796493962E-005   8.6635316053384955E-017
 chl          66   1.7454144527881405E-005   5.4817470626792025E-004   3.1840477731474713E-002
 chl2c          67   3.7937587124568600E-002   3.7937587124568600E-002  0.75736760000000003        8.8070763249531044E-005   1.2516434643773305E-016
 chl          67   2.0796425678524024E-005   5.4817470626792025E-004   3.7937587124568600E-002
 chl2c          68   4.5855112186438306E-002   3.7855407263856986E-002  0.72590779999999999        8.8070763249531044E-005   2.1554027185569933E-006
 chl          68   2.5136612653683347E-005   5.4817470626792025E-004   4.5855112186438306E-002
 chl2c          69   4.7741437148023820E-002   2.1732330561541505E-002  0.45524217500000003        8.8070763249531044E-005   2.3486123643102561E-006
 chl          69   2.6170648285426333E-005   5.4817470626792025E-004   4.7741437148023820E-002
 chl2c          70   3.2658010878182209E-002   3.2658010878182209E-002  0.48694062500000002        5.6085699796493962E-005   1.2607104537342201E-016
 chl          70   1.7902295520442077E-005   5.4817470626792025E-004   3.2658010878182209E-002
 chl2c          71   4.3481058864416305E-002   4.3481058864416305E-002  0.23986107500000001        3.8530039429788765E-005   9.5117645853363693E-017
 chl          71   2.3835216671219559E-005   5.4817470626792025E-004   4.3481058864416305E-002
 chl2c          72   3.7549776402781669E-002   3.7549776402781669E-002  0.62790522500000001        8.8070763249531044E-005   1.5082369078482532E-016
 chl          72   2.0583837650020923E-005   5.4817470626792025E-004   3.7549776402781669E-002
 chl2c          73   3.1852614277819484E-002   3.1852614277819484E-002  0.35362212500000001        5.6085699796493962E-005   1.0460246900555435E-016
 chl          73   1.7460797475609060E-005   5.4817470626792025E-004   3.1852614277819484E-002
 chl2c          74   3.7616827685877569E-002   3.7616827685877569E-002  0.64719590000000005        8.8070763249531044E-005   1.7551112105494912E-006
 chl          74   2.0620593467436905E-005   5.4817470626792025E-004   3.7616827685877569E-002
 chl2c          75   3.7826830779512356E-002   3.7826830779512356E-002  0.71554212500000003        8.8070763249531044E-005   1.1864904716499359E-016
 chl          75   2.0735711851605511E-005   5.4817470626792025E-004   3.7826830779512356E-002
 chl2c          76   5.8356603332002356E-002   3.7257729557919804E-002  0.55513977500000000        8.8070763249531044E-005   2.8716217845595665E-006
 chl          76   3.1989613890313930E-005   5.4817470626792025E-004   5.8356603332002356E-002
 chl2c          77   3.7138172437479272E-002   3.7138172437479272E-002  0.52973029999999999        8.8070763249531044E-005   8.4071906894195155E-007
 chl          77   2.0358206767242573E-005   5.4817470626792025E-004   3.7138172437479272E-002
 chl2c          78   7.2751245443642046E-002   4.7515248899399322E-002  0.45117492500000000        3.8530039429788765E-005   1.6710003501190058E-006
 chl          78   3.9880392601693849E-005   5.4817470626792025E-004   7.2751245443642046E-002
 prod   4.6642480283754154E-007   64.457378274140979        10.000000000000000     
 chl2c           1   3.7477407714772232E-002   3.7477407714772232E-002  0.60826437499999997        7.5759641860923221E-005   2.3759995511885236E-007
 chl           1   1.4759149906488624E-005   3.9381458874678525E-004   3.7477407714772232E-002
 chl2c           2   3.4228521764975206E-002   3.2640259920490348E-002  0.48302390000000001        4.8674643032448762E-005   8.9656373346627371E-007
 chl           2   1.3479691222284098E-005   3.9381458874678525E-004   3.4228521764975206E-002
 chl2c           3   3.7922212503796585E-002   3.7922212503796585E-002  0.75128689999999998        7.5759641860923221E-005   1.2647433273390997E-016
 chl           3   1.4934320521550849E-005   3.9381458874678525E-004   3.7922212503796585E-002
 chl2c           4   6.6778797318678765E-002   3.7976509103863923E-002  0.77318742499999993        7.5759641860923221E-005   2.7686961560705179E-006
 chl           4   2.6298464603060401E-005   3.9381458874678525E-004   6.6778797318678765E-002
 chl2c           5   7.2715080329674345E-002   2.5710500362372445E-002  0.48489679999999996        4.0042785141901960E-005   1.7126923608414073E-006
 chl           5   2.8636259455720155E-005   3.9381458874678525E-004   7.2715080329674345E-002
 chl2c           6   3.1261039902252048E-002   3.1261039902252048E-002  0.29222855000000003        4.8674643032448762E-005   1.0768326796599640E-016
 chl           6   1.2311053572902234E-005   3.9381458874678525E-004   3.1261039902252048E-002
 chl2c           7   4.9424393028089396E-002   4.3064391842467263E-002  0.22770740000000000        3.3641138839993158E-005   1.0618159194972824E-006
 chl           7   1.9464047014416505E-005   3.9381458874678525E-004   4.9424393028089396E-002
 chl2c           8   4.7969800906495587E-002   4.7969800906495587E-002  0.49578364999999996        3.3641138839993158E-005   2.8339029593628265E-007
 chl           8   1.8891207416256726E-005   3.9381458874678525E-004   4.7969800906495587E-002
 chl2c           9   7.2460558216017060E-002   2.4803669054600401E-002  0.28700202499999999        4.0042785141901960E-005   1.9407503451599777E-006
 chl           9   2.8536024934203251E-005   3.9381458874678525E-004   7.2460558216017060E-002
 chl2c          10   9.0284966531155864E-002   2.5387016219684602E-002  0.39094662499999999        4.0042785141901960E-005   2.3504398524034284E-006
 chl          10   3.5555536964484413E-005   3.9381458874678525E-004   9.0284966531155864E-002
 chl2c          11   2.1820572217820047E-002   2.1820572217820047E-002  0.49737575000000001        7.5759641860923221E-005   1.1738560374407883E-016
 chl          11   8.5932596741803287E-006   3.9381458874678525E-004   2.1820572217820047E-002
 chl2c          12   4.5290941298723353E-002   4.5290941298723353E-002  0.30768942500000002        3.3641138839993158E-005   5.1151673165061010E-017
 chl          12   1.7836233421511530E-005   3.9381458874678525E-004   4.5290941298723353E-002
 chl2c          13   3.7935816987997487E-002   3.7935816987997487E-002  0.75666275000000005        7.5759641860923221E-005   1.0496997534598077E-016
 chl          13   1.4939678165901540E-005   3.9381458874678525E-004   3.7935816987997487E-002
 chl2c          14   4.6856526101924839E-002   4.6856526101924839E-002  0.39804095000000000        3.3641138839993158E-005   8.4131763561719919E-017
 chl          14   1.8452783556932539E-005   3.9381458874678525E-004   4.6856526101924839E-002
 chl2c          15   5.7180186435243578E-002   2.0954299823745293E-002  0.25607262500000000        7.5759641860923221E-005   2.7886779659648286E-006
 chl          15   2.2518391605459957E-005   3.9381458874678525E-004   5.7180186435243578E-002
 chl2c          16   3.7823443882273475E-002   3.7823443882273475E-002  0.71433214999999994        7.5759641860923221E-005   1.3172697989202565E-016
 chl          16   1.4895423997484639E-005   3.9381458874678525E-004   3.7823443882273475E-002
 chl2c          17   3.7542254757581245E-002   3.7542254757581245E-002  0.62580860000000005        7.5759641860923221E-005   1.3166025048203144E-016
 chl          17   1.4784687617983900E-005   3.9381458874678525E-004   3.7542254757581245E-002
 chl2c          18   2.5694475239060960E-002   2.5694475239060960E-002  0.47925950000000000        4.0042785141901960E-005   1.2264700520599592E-016
 chl          18   1.0118859199335249E-005   3.9381458874678525E-004   2.5694475239060960E-002
 chl2c          19   4.3892630728759173E-002   3.7570220750293731E-002  0.63367130000000005        7.5759641860923221E-005   1.7863827034133629E-006
 chl          19   1.7285558319460801E-005   3.9381458874678525E-004   4.3892630728759173E-002
 chl2c          20   3.7020645196759419E-002   3.7020645196759419E-002  0.50678202500000002        7.5759641860923221E-005   1.1569923179197429E-016
 chl          20   1.4579270163302461E-005   3.9381458874678525E-004   3.7020645196759419E-002
 chl2c          21   3.7838475073783531E-002   3.7838475073783531E-002  0.71973185000000006        7.5759641860923221E-005   1.4823652286648097E-006
 chl          21   1.4901343499987547E-005   3.9381458874678525E-004   3.7838475073783531E-002
 chl2c          22   6.5546767689867419E-002   3.7613353106285476E-002  0.64616892500000001        7.5759641860923221E-005   2.7631958048678451E-006
 chl          22   2.5813273361466210E-005   3.9381458874678525E-004   6.5546767689867419E-002
 chl2c          23   3.2286562315070731E-002   3.2286562315070731E-002  0.41564179999999995        4.8674643032448762E-005   6.8635748886706914E-017
 chl          23   1.2714919260157035E-005   3.9381458874678525E-004   3.2286562315070731E-002
 chl2c          24   3.7348402796863071E-002   3.7348402796863071E-002  0.57597492500000003        7.5759641860923221E-005   9.3738564776412311E-017
 chl          24   1.4708345887795914E-005   3.9381458874678525E-004   3.7348402796863071E-002
 chl2c          25   4.5426679235459781E-002   4.5426679235459781E-002  0.31406487500000002        3.3641138839993158E-005   5.3874440009857152E-017
 chl          25   1.7889689001244724E-005   3.9381458874678525E-004   4.5426679235459781E-002
 chl2c          26   4.7955660680174553E-002   4.7955660680174553E-002  0.49427735000000000        3.3641138839993158E-005   4.9338826772201563E-017
 chl          26   1.8885638788843320E-005   3.9381458874678525E-004   4.7955660680174553E-002
 chl2c          27   4.5333133499525620E-002   4.5333133499525620E-002  0.30964730000000001        3.3641138839993158E-005   8.3459759131362687E-017
 chl          27   1.7852849325718795E-005   3.9381458874678525E-004   4.5333133499525620E-002
 chl2c          28   3.1209236063453518E-002   3.1209236063453518E-002  0.28776342500000002        4.8674643032448762E-005   8.2980905240393323E-017
 chl          28   1.2290652465430286E-005   3.9381458874678525E-004   3.1209236063453518E-002
 chl2c          29   5.7114903435689146E-002   3.7743217595736761E-002  0.68676297499999994        7.5759641860923221E-005   2.3597519838436010E-006
 chl          29   2.2492682207838273E-005   3.9381458874678525E-004   5.7114903435689146E-002
 chl2c          30   2.5380056985171612E-002   2.5380056985171612E-002  0.38930277499999999        4.0042785141901960E-005   1.3473730322914728E-016
 chl          30   9.9950367039853321E-006   3.9381458874678525E-004   2.5380056985171612E-002
 chl2c          31   4.8225502932987545E-002   3.7576959810037038E-002  0.63559385000000002        7.5759641860923221E-005   1.9767594797349116E-006
 chl          31   1.8991906604661374E-005   3.9381458874678525E-004   4.8225502932987545E-002
 chl2c          32   5.9661846875168310E-002   2.0893126428578448E-002  0.24722667500000001        7.5759641860923221E-005   2.9788493148984116E-006
 chl          32   2.3495705691018084E-005   3.9381458874678525E-004   5.9661846875168310E-002
 chl2c          33   4.7355330942937437E-002   3.7458922634011876E-002  0.60343137499999999        7.5759641860923221E-005   1.9465721012201083E-006
 chl          33   1.8649220180260821E-005   3.9381458874678525E-004   4.7355330942937437E-002
 chl2c          34   4.6840950918875766E-002   2.5350269098008315E-002  0.38241020000000003        4.0042785141901960E-005   1.0687282660124786E-006
 chl          34   1.8446649822625413E-005   3.9381458874678525E-004   4.6840950918875766E-002
 chl2c          35   2.5740370148566064E-002   2.5740370148566064E-002  0.49574644999999995        4.0042785141901960E-005   9.6640449389680907E-017
 chl          35   1.0136933284247572E-005   3.9381458874678525E-004   2.5740370148566064E-002
 chl2c          36   3.7770393924465726E-002   3.7770393924465726E-002  0.69587337500000002        7.5759641860923221E-005   9.9946649697197629E-017
 chl          36   1.4874532150167546E-005   3.9381458874678525E-004   3.7770393924465726E-002
 chl2c          37   2.1353674699533250E-002   2.1353674699533250E-002  0.33194060000000003        7.5759641860923221E-005   8.8355238983817906E-017
 chl          37   8.4093886200293202E-006   3.9381458874678525E-004   2.1353674699533250E-002
 chl2c          38   2.1543295686358745E-002   2.1543295686358745E-002  0.38455722500000000        7.5759641860923221E-005   1.3760189261461070E-016
 chl          38   8.4840641309737608E-006   3.9381458874678525E-004   2.1543295686358745E-002
 chl2c          39   2.5670077108751441E-002   2.5670077108751441E-002  0.47091117500000002        4.0042785141901960E-005   1.1023409391017659E-016
 chl          39   1.0109250859681216E-005   3.9381458874678525E-004   2.5670077108751441E-002
 chl2c          40   3.7687445774703773E-002   3.7687445774703773E-002  0.66875547499999999        7.5759641860923221E-005   1.3198463158144398E-016
 chl          40   1.4841865958681736E-005   3.9381458874678525E-004   3.7687445774703773E-002
 chl2c          41   2.5582381488167241E-002   2.5582381488167241E-002  0.44304987499999998        4.0042785141901960E-005   7.9436438404220217E-017
 chl          41   1.0074715044925953E-005   3.9381458874678525E-004   2.5582381488167241E-002
 chl2c          42   3.7949995630725070E-002   3.7949995630725070E-002  0.76234377499999995        7.5759641860923221E-005   1.1110166388184688E-016
 chl          42   1.4945261922256291E-005   3.9381458874678525E-004   3.7949995630725070E-002
 chl2c          43   2.1185090152268007E-002   2.1185090152268007E-002  0.29539925000000000        7.5759641860923221E-005   2.0900367295887138E-007
 chl          43   8.3429975658789948E-006   3.9381458874678525E-004   2.1185090152268007E-002
 chl2c          44   3.7536352708156646E-002   3.7536352708156646E-002  0.62417262500000004        7.5759641860923221E-005   9.4761347218724177E-017
 chl          44   1.4782363304816988E-005   3.9381458874678525E-004   3.7536352708156646E-002
 chl2c          45   4.6544927192009838E-002   4.6544927192009838E-002  0.37662252499999999        3.3641138839993158E-005   6.3823947348827909E-017
 chl          45   1.8330071360370415E-005   3.9381458874678525E-004   4.6544927192009838E-002
 chl2c          46   5.5108880128004384E-002   3.7083195475449568E-002  0.51876034999999998        7.5759641860923221E-005   2.3356331828681194E-006
 chl          46   2.1702680963905933E-005   3.9381458874678525E-004   5.5108880128004384E-002
 chl2c          47   3.7519784612651236E-002   3.7519784612651236E-002  0.61962282499999999        7.5759641860923221E-005   1.2133426218929960E-016
 chl          47   1.4775838547099208E-005   3.9381458874678525E-004   3.7519784612651236E-002
 chl2c          48   3.7823212136301673E-002   3.7823212136301673E-002  0.71424949999999998        7.5759641860923221E-005   1.1663526147099440E-016
 chl          48   1.4895332732540060E-005   3.9381458874678525E-004   3.7823212136301673E-002
 chl2c          49   3.7152990741888416E-002   3.7152990741888416E-002  0.53276120000000005        7.5759641860923221E-005   1.0845598217949841E-016
 chl          49   1.4631389769729907E-005   3.9381458874678525E-004   3.7152990741888416E-002
 chl2c          50   5.0572991405787360E-002   2.1533072915600981E-002  0.38132569999999999        7.5759641860923221E-005   2.2086109809485667E-006
 chl          50   1.9916381812164852E-005   3.9381458874678525E-004   5.0572991405787360E-002
 chl2c          51   2.0700971146093840E-002   2.0700971146093840E-002  0.22275920000000002        7.5759641860923221E-005   1.4647388592555540E-016
 chl          51   8.1523444385580138E-006   3.9381458874678525E-004   2.0700971146093840E-002
 chl2c          52   3.7581825176985564E-002   3.7581825176985564E-002  0.63698869999999996        7.5759641860923221E-005   1.2923058602139112E-016
 chl          52   1.4800271026428150E-005   3.9381458874678525E-004   3.7581825176985564E-002
 chl2c          53   3.7925801262726190E-002   3.7925801262726190E-002  0.75269794999999995        7.5759641860923221E-005   1.1557360803455442E-016
 chl          53   1.4935733827172824E-005   3.9381458874678525E-004   3.7925801262726190E-002
 chl2c          54   3.7082433371327092E-002   3.7082433371327092E-002  0.51861124999999997        7.5759641860923221E-005   9.4607672679712274E-017
 chl          54   1.4603603247859244E-005   3.9381458874678525E-004   3.7082433371327092E-002
 chl2c          55   6.4301361142152791E-002   3.7357235588660491E-002  0.57808280000000001        7.5759641860923221E-005   2.7405625619069500E-006
 chl          55   2.5322814094055419E-005   3.9381458874678525E-004   6.4301361142152791E-002
 chl2c          56   3.7507394187257688E-002   3.7507394187257688E-002  0.61626080000000005        7.5759641860923221E-005   1.2957654826771249E-016
 chl          56   1.4770959016818450E-005   3.9381458874678525E-004   3.7507394187257688E-002
 chl2c          57   3.9614974971447642E-002   3.7727617852646313E-002  0.68163462500000005        7.5759641860923221E-005   1.5932012035168437E-006
 chl          57   1.5600955076594844E-005   3.9381458874678525E-004   3.9614974971447642E-002
 chl2c          58   5.1473991213825197E-002   3.7765358178394853E-002  0.69416802499999997        7.5759641860923221E-005   2.1059889989615704E-006
 chl          58   2.0271208681028207E-005   3.9381458874678525E-004   5.1473991213825197E-002
 chl2c          59   3.7173699120809672E-002   3.7173699120809672E-002  0.53705127500000005        7.5759641860923221E-005   1.2291509252118244E-007
 chl          59   1.4639545031458393E-005   3.9381458874678525E-004   3.7173699120809672E-002
 chl2c          60   3.7607757740906807E-002   3.7607757740906807E-002  0.64452155000000000        7.5759641860923221E-005   1.3656555518684622E-006
 chl          60   1.4810483648423943E-005   3.9381458874678525E-004   3.7607757740906807E-002
 chl2c          61   3.7805373434125003E-002   3.7805373434125003E-002  0.70794139999999994        7.5759641860923221E-005   1.1308355940298103E-016
 chl          61   1.4888307591378578E-005   3.9381458874678525E-004   3.7805373434125003E-002
 chl2c          62   3.7956103087269030E-002   3.7956103087269030E-002  0.76481592499999995        7.5759641860923221E-005   9.2098781697488749E-017
 chl          62   1.4947667127743438E-005   3.9381458874678525E-004   3.7956103087269030E-002
 chl2c          63   4.8111139867485865E-002   3.7855601011927406E-002  0.72597904999999996        7.5759641860923221E-005   1.9517877001874843E-006
 chl          63   1.8946868761053010E-005   3.9381458874678525E-004   4.8111139867485865E-002
 chl2c          64   2.5708982294816416E-002   2.5708982294816416E-002  0.48435739999999999        4.0042785141901960E-005   7.7258035726673280E-017
 chl          64   1.0124572289531511E-005   3.9381458874678525E-004   2.5708982294816416E-002
 chl2c          65   3.7953597170552002E-002   3.7953597170552002E-002  0.76379975000000000        7.5759641860923221E-005   7.7759788624760214E-008
 chl          65   1.4946680261182088E-005   3.9381458874678525E-004   3.7953597170552002E-002
 chl2c          66   3.1840477731474713E-002   3.1840477731474713E-002  0.35213202499999996        4.8674643032448762E-005   5.3585783042530780E-017
 chl          66   1.2539244643321888E-005   3.9381458874678525E-004   3.1840477731474713E-002
 chl2c          67   3.7937587124568600E-002   3.7937587124568600E-002  0.75736760000000003        7.5759641860923221E-005   1.0783257051572532E-016
 chl          67   1.4940375271507318E-005   3.9381458874678525E-004   3.7937587124568600E-002
 chl2c          68   4.8937639846619349E-002   3.7855407263856986E-002  0.72590779999999999        7.5759641860923221E-005   1.9877550922282991E-006
 chl          68   1.9272356510434690E-005   3.9381458874678525E-004   4.8937639846619349E-002
 chl2c          69   4.6763337401014744E-002   2.1732330561541505E-002  0.45524217500000003        7.5759641860923221E-005   1.9741781622556357E-006
 chl          69   1.8416084487007784E-005   3.9381458874678525E-004   4.6763337401014744E-002
 chl2c          70   3.2658010878182209E-002   3.2658010878182209E-002  0.48694062500000002        4.8674643032448762E-005   1.0076810717134099E-016
 chl          70   1.2861201123279365E-005   3.9381458874678525E-004   3.2658010878182209E-002
 chl2c          71   4.3481058864416305E-002   4.3481058864416305E-002  0.23986107500000001        3.3641138839993158E-005   5.9244990468272619E-017
 chl          71   1.7123475314964869E-005   3.9381458874678525E-004   4.3481058864416305E-002
 chl2c          72   3.7549776402781669E-002   3.7549776402781669E-002  0.62790522500000001        7.5759641860923221E-005   1.2999070055923638E-016
 chl          72   1.4787649751595204E-005   3.9381458874678525E-004   3.7549776402781669E-002
 chl2c          73   3.1852614277819484E-002   3.1852614277819484E-002  0.35362212500000001        4.8674643032448762E-005   6.5667809287369451E-017
 chl          73   1.2544024192329460E-005   3.9381458874678525E-004   3.1852614277819484E-002
 chl2c          74   4.0394178754551320E-002   3.7616827685877569E-002  0.64719590000000005        7.5759641860923221E-005   1.6319830869003565E-006
 chl          74   1.5907816893987759E-005   3.9381458874678525E-004   4.0394178754551320E-002
 chl2c          75   3.7826830779512356E-002   3.7826830779512356E-002  0.71554212500000003        7.5759641860923221E-005   1.0220966697389995E-016
 chl          75   1.4896757807027896E-005   3.9381458874678525E-004   3.7826830779512356E-002
 chl2c          76   5.7752219587243865E-002   3.7257729557919804E-002  0.55513977500000000        7.5759641860923221E-005   2.4416534718942937E-006
 chl          76   2.2743666605964478E-005   3.9381458874678525E-004   5.7752219587243865E-002
 chl2c          77   3.7138172437479272E-002   3.7138172437479272E-002  0.52973029999999999        7.5759641860923221E-005   8.4275149052157356E-007
 chl          77   1.4625554105273095E-005   3.9381458874678525E-004   3.7138172437479272E-002
 chl2c          78   5.8282202794970837E-002   4.7515248899399322E-002  0.45117492500000000        3.3641138839993158E-005   1.1257646882087785E-006
 chl          78   2.2952381724958178E-005   3.9381458874678525E-004   5.8282202794970837E-002
 prod   2.6933099572720944E-007   55.148019649395778        10.000000000000000     
 chl2c           1   3.7477407714772232E-002   3.7477407714772232E-002  0.60826437499999997        6.5273866626363184E-005   2.9997435377181252E-007
 chl           1   8.9750337378861959E-006   2.3947850945807450E-004   3.7477407714772232E-002
 chl2c           2   3.2640259920490348E-002   3.2640259920490348E-002  0.48302390000000001        4.2268541352560248E-005   2.3823400972923197E-007
 chl           2   7.8166407940831577E-006   2.3947850945807450E-004   3.2640259920490348E-002
 chl2c           3   3.7922212503796585E-002   3.7922212503796585E-002  0.75128689999999998        6.5273866626363184E-005   1.0672717277225375E-016
 chl           3   9.0815549257615617E-006   2.3947850945807450E-004   3.7922212503796585E-002
 chl2c           4   6.5401685580040531E-002   3.7976509103863923E-002  0.77318742499999993        6.5273866626363184E-005   2.3317461022558774E-006
 chl           4   1.5662298178753749E-005   2.3947850945807450E-004   6.5401685580040531E-002
 chl2c           5   6.6797257267361854E-002   2.5710500362372445E-002  0.48489679999999996        3.4605776850724826E-005   1.3404384078943806E-006
 chl           5   1.5996507606275353E-005   2.3947850945807450E-004   6.6797257267361854E-002
 chl2c           6   3.1261039902252048E-002   3.1261039902252048E-002  0.29222855000000003        4.2268541352560248E-005   7.3763320776725804E-017
 chl           6   7.4863472399007117E-006   2.3947850945807450E-004   3.1261039902252048E-002
 chl2c           7   4.3064391842467263E-002   4.3064391842467263E-002  0.22770740000000000        2.9383401666226057E-005   3.0109786147082367E-007
 chl           7   1.0312996369152522E-005   2.3947850945807450E-004   4.3064391842467263E-002
 chl2c           8   4.7969800906495587E-002   4.7969800906495587E-002  0.49578364999999996        2.9383401666226057E-005   1.0619005712292253E-007
 chl           8   1.1487736420088154E-005   2.3947850945807450E-004   4.7969800906495587E-002
 chl2c           9   7.3445525119154087E-002   2.4803669054600401E-002  0.28700202499999999        3.4605776850724826E-005   1.7078751295927950E-006
 chl           9   1.7588624881900590E-005   2.3947850945807450E-004   7.3445525119154087E-002
 chl2c          10   8.5696816901111861E-002   2.5387016219684602E-002  0.39094662499999999        3.4605776850724826E-005   1.8990892127901212E-006
 chl          10   2.0522545976779796E-005   2.3947850945807450E-004   8.5696816901111861E-002
 chl2c          11   2.1820572217820047E-002   2.1820572217820047E-002  0.49737575000000001        6.5273866626363184E-005   9.8243416342306336E-017
 chl          11   5.2255581102458152E-006   2.3947850945807450E-004   2.1820572217820047E-002
 chl2c          12   4.5290941298723353E-002   4.5290941298723353E-002  0.30768942500000002        2.9383401666226057E-005   1.4724268053437667E-017
 chl          12   1.0846207114171417E-005   2.3947850945807450E-004   4.5290941298723353E-002
 chl2c          13   3.7935816987997487E-002   3.7935816987997487E-002  0.75666275000000005        6.5273866626363184E-005   8.8780649994692991E-017
 chl          13   9.0848129073599392E-006   2.3947850945807450E-004   3.7935816987997487E-002
 chl2c          14   4.6856526101924839E-002   4.6856526101924839E-002  0.39804095000000000        2.9383401666226057E-005   5.7300122709810258E-017
 chl          14   1.1221131029272322E-005   2.3947850945807450E-004   4.6856526101924839E-002
 chl2c          15   5.4743868160774735E-002   2.0954299823745293E-002  0.25607262500000000        6.5273866626363184E-005   2.2724909729687559E-006
 chl          15   1.3109979949111675E-005   2.3947850945807450E-004   5.4743868160774735E-002
 chl2c          16   3.7823443882273475E-002   3.7823443882273475E-002  0.71433214999999994        6.5273866626363184E-005   1.1109845788284009E-016
 chl          16   9.0579019634979780E-006   2.3947850945807450E-004   3.7823443882273475E-002
 chl2c          17   3.7542254757581245E-002   3.7542254757581245E-002  0.62580860000000005        6.5273866626363184E-005   1.1104295552438968E-016
 chl          17   8.9905632110408630E-006   2.3947850945807450E-004   3.7542254757581245E-002
 chl2c          18   2.5694475239060960E-002   2.5694475239060960E-002  0.47925950000000000        3.4605776850724826E-005   1.0254864508820463E-016
 chl          18   6.1532746315577212E-006   2.3947850945807450E-004   2.5694475239060960E-002
 chl2c          19   4.3924760867516927E-002   3.7570220750293731E-002  0.63367130000000005        6.5273866626363184E-005   1.5403428131764968E-006
 chl          19   1.0519036260855313E-005   2.3947850945807450E-004   4.3924760867516927E-002
 chl2c          20   3.7020645196759419E-002   3.7020645196759419E-002  0.50678202500000002        6.5273866626363184E-005   9.7744937869309446E-017
 chl          20   8.8656489308961699E-006   2.3947850945807450E-004   3.7020645196759419E-002
 chl2c          21   3.8863147182593615E-002   3.7838475073783531E-002  0.71973185000000006        6.5273866626363184E-005   1.3407711658144152E-006
 chl          21   9.3068885601372869E-006   2.3947850945807450E-004   3.8863147182593615E-002
 chl2c          22   6.3645290036108637E-002   3.7613353106285476E-002  0.64616892500000001        6.5273866626363184E-005   2.3041361177725501E-006
 chl          22   1.5241679191874136E-005   2.3947850945807450E-004   6.3645290036108637E-002
 chl2c          23   3.2286562315070731E-002   3.2286562315070731E-002  0.41564179999999995        4.2268541352560248E-005   2.0261718346042080E-017
 chl          23   7.7319378187383783E-006   2.3947850945807450E-004   3.2286562315070731E-002
 chl2c          24   3.7348402796863071E-002   3.7348402796863071E-002  0.57597492500000003        6.5273866626363184E-005   7.9375075209128265E-017
 chl          24   8.9441398324325485E-006   2.3947850945807450E-004   3.7348402796863071E-002
 chl2c          25   4.5426679235459781E-002   4.5426679235459781E-002  0.31406487500000002        2.9383401666226057E-005   1.5568405331036305E-017
 chl          25   1.0878713432937972E-005   2.3947850945807450E-004   4.5426679235459781E-002
 chl2c          26   4.7955660680174553E-002   4.7955660680174553E-002  0.49427735000000000        2.9383401666226057E-005   1.4165854154394344E-017
 chl          26   1.1484350139765393E-005   2.3947850945807450E-004   4.7955660680174553E-002
 chl2c          27   4.5333133499525620E-002   4.5333133499525620E-002  0.30964730000000001        2.9383401666226057E-005   5.6833165306928868E-017
 chl          27   1.0856311239530301E-005   2.3947850945807450E-004   4.5333133499525620E-002
 chl2c          28   3.1209236063453518E-002   3.1209236063453518E-002  0.28776342500000002        4.2268541352560248E-005   5.6500516631776581E-017
 chl          28   7.4739413338010327E-006   2.3947850945807450E-004   3.1209236063453518E-002
 chl2c          29   5.4932836981072972E-002   3.7743217595736761E-002  0.68676297499999994        6.5273866626363184E-005   1.9487131158556645E-006
 chl          29   1.3155233920530748E-005   2.3947850945807450E-004   5.4932836981072972E-002
 chl2c          30   2.5380056985171612E-002   2.5380056985171612E-002  0.38930277499999999        3.4605776850724826E-005   1.1241082871941637E-016
 chl          30   6.0779782167698893E-006   2.3947850945807450E-004   2.5380056985171612E-002
 chl2c          31   4.4168061274123697E-002   3.7576959810037038E-002  0.63559385000000002        6.5273866626363184E-005   1.5491629768426863E-006
 chl          31   1.0577301479580045E-005   2.3947850945807450E-004   4.4168061274123697E-002
 chl2c          32   5.7665259146347882E-002   2.0893126428578448E-002  0.24722667500000001        6.5273866626363184E-005   2.4545335706495658E-006
 chl          32   1.3809590307880988E-005   2.3947850945807450E-004   5.7665259146347882E-002
 chl2c          33   4.7015403229238216E-002   3.7458922634011876E-002  0.60343137499999999        6.5273866626363184E-005   1.6640938238460936E-006
 chl          33   1.1259178686908310E-005   2.3947850945807450E-004   4.7015403229238216E-002
 chl2c          34   3.9096784147300841E-002   2.5350269098008315E-002  0.38241020000000003        3.4605776850724826E-005   7.5352616416655538E-007
 chl          34   9.3628395921996812E-006   2.3947850945807450E-004   3.9096784147300841E-002
 chl2c          35   2.5740370148566064E-002   2.5740370148566064E-002  0.49574644999999995        3.4605776850724826E-005   8.1187972555687209E-017
 chl          35   6.1642654760777162E-006   2.3947850945807450E-004   2.5740370148566064E-002
 chl2c          36   3.7770393924465726E-002   3.7770393924465726E-002  0.69587337500000002        6.5273866626363184E-005   8.4576694376822406E-017
 chl          36   9.0451976386753643E-006   2.3947850945807450E-004   3.7770393924465726E-002
 chl2c          37   2.1353674699533250E-002   2.1353674699533250E-002  0.33194060000000003        6.5273866626363184E-005   7.4340197509526412E-017
 chl          37   5.1137461884968197E-006   2.3947850945807450E-004   2.1353674699533250E-002
 chl2c          38   2.1543295686358745E-002   2.1543295686358745E-002  0.38455722500000000        6.5273866626363184E-005   1.1474123552093265E-016
 chl          38   5.1591563397837585E-006   2.3947850945807450E-004   2.1543295686358745E-002
 chl2c          39   2.5670077108751441E-002   2.5670077108751441E-002  0.47091117500000002        3.4605776850724826E-005   9.2378400201523271E-017
 chl          39   6.1474318036776340E-006   2.3947850945807450E-004   2.5670077108751441E-002
 chl2c          40   3.7687445774703773E-002   3.7687445774703773E-002  0.66875547499999999        6.5273866626363184E-005   1.1131275303341534E-016
 chl          40   9.0253333394080672E-006   2.3947850945807450E-004   3.7687445774703773E-002
 chl2c          41   2.5582381488167241E-002   2.5582381488167241E-002  0.44304987499999998        3.4605776850724826E-005   6.6945475578795021E-017
 chl          41   6.1264305871741284E-006   2.3947850945807450E-004   2.5582381488167241E-002
 chl2c          42   3.7949995630725070E-002   3.7949995630725070E-002  0.76234377499999995        6.5273866626363184E-005   9.3906152797457294E-017
 chl          42   9.0882083875864785E-006   2.3947850945807450E-004   3.7949995630725070E-002
 chl2c          43   2.1185090152268007E-002   2.1185090152268007E-002  0.29539925000000000        6.5273866626363184E-005   3.2649915284036681E-007
 chl          43   5.0733738124000747E-006   2.3947850945807450E-004   2.1185090152268007E-002
 chl2c          44   3.7536352708156646E-002   3.7536352708156646E-002  0.62417262500000004        6.5273866626363184E-005   8.0232510857558133E-017
 chl          44   8.9891497970419122E-006   2.3947850945807450E-004   3.7536352708156646E-002
 chl2c          45   4.6544927192009838E-002   4.6544927192009838E-002  0.37662252499999999        2.9383401666226057E-005   1.8709741875126061E-017
 chl          45   1.1146509786777118E-005   2.3947850945807450E-004   4.6544927192009838E-002
 chl2c          46   5.2080410175410208E-002   3.7083195475449568E-002  0.51876034999999998        6.5273866626363184E-005   1.8894325005355080E-006
 chl          46   1.2472139000772373E-005   2.3947850945807450E-004   5.2080410175410208E-002
 chl2c          47   3.7519784612651236E-002   3.7519784612651236E-002  0.61962282499999999        6.5273866626363184E-005   1.0244489744660785E-016
 chl          47   8.9851820942257161E-006   2.3947850945807450E-004   3.7519784612651236E-002
 chl2c          48   3.7823212136301673E-002   3.7823212136301673E-002  0.71424949999999998        6.5273866626363184E-005   9.8526029954039049E-017
 chl          48   9.0578464653180789E-006   2.3947850945807450E-004   3.7823212136301673E-002
 chl2c          49   3.7152990741888416E-002   3.7152990741888416E-002  0.53276120000000005        6.5273866626363184E-005   9.1695429005763214E-017
 chl          49   8.8973428447770785E-006   2.3947850945807450E-004   3.7152990741888416E-002
 chl2c          50   4.9204091612938185E-002   2.1533072915600981E-002  0.38132569999999999        6.5273866626363184E-005   1.8437817257727260E-006
 chl          50   1.1783322518704981E-005   2.3947850945807450E-004   4.9204091612938185E-002
 chl2c          51   2.0700971146093840E-002   2.0700971146093840E-002  0.22275920000000002        6.5273866626363184E-005   1.2194368670373220E-016
 chl          51   4.9574377144011611E-006   2.3947850945807450E-004   2.0700971146093840E-002
 chl2c          52   3.7581825176985564E-002   3.7581825176985564E-002  0.63698869999999996        6.5273866626363184E-005   1.0902154555466093E-016
 chl          52   9.0000394760984395E-006   2.3947850945807450E-004   3.7581825176985564E-002
 chl2c          53   3.7925801262726190E-002   3.7925801262726190E-002  0.75269794999999995        6.5273866626363184E-005   9.7640096440497055E-017
 chl          53   9.0824143564008283E-006   2.3947850945807450E-004   3.7925801262726190E-002
 chl2c          54   3.7082433371327092E-002   3.7082433371327092E-002  0.51861124999999997        6.5273866626363184E-005   8.0103691717514137E-017
 chl          54   8.8804458708437722E-006   2.3947850945807450E-004   3.7082433371327092E-002
 chl2c          55   6.2452167945106267E-002   3.7357235588660491E-002  0.57808280000000001        6.5273866626363184E-005   2.2851157371662262E-006
 chl          55   1.4955952091919388E-005   2.3947850945807450E-004   6.2452167945106267E-002
 chl2c          56   3.7507394187257688E-002   3.7507394187257688E-002  0.61626080000000005        6.5273866626363184E-005   1.0930943909593157E-016
 chl          56   8.9822148536209189E-006   2.3947850945807450E-004   3.7507394187257688E-002
 chl2c          57   3.7727617852646313E-002   3.7727617852646313E-002  0.68163462500000005        6.5273866626363184E-005   1.1898065786050409E-006
 chl          57   9.0349536887555801E-006   2.3947850945807450E-004   3.7727617852646313E-002
 chl2c          58   5.2219635566228904E-002   3.7765358178394853E-002  0.69416802499999997        6.5273866626363184E-005   1.8429250459073549E-006
 chl          58   1.2505480489844352E-005   2.3947850945807450E-004   5.2219635566228904E-002
 chl2c          59   3.7173699120809672E-002   3.7173699120809672E-002  0.53705127500000005        6.5273866626363184E-005   2.0267456859667981E-007
 chl          59   8.9023020564944344E-006   2.3947850945807450E-004   3.7173699120809672E-002
 chl2c          60   3.7607757740906807E-002   3.7607757740906807E-002  0.64452155000000000        6.5273866626363184E-005   1.2229636019361092E-006
 chl          60   9.0062497678527251E-006   2.3947850945807450E-004   3.7607757740906807E-002
 chl2c          61   3.7805373434125003E-002   3.7805373434125003E-002  0.70794139999999994        6.5273866626363184E-005   9.5561411937767541E-017
 chl          61   9.0535744795101420E-006   2.3947850945807450E-004   3.7805373434125003E-002
 chl2c          62   3.7956103087269030E-002   3.7956103087269030E-002  0.76481592499999995        6.5273866626363184E-005   7.7999999563004312E-017
 chl          62   9.0896709921762068E-006   2.3947850945807450E-004   3.7956103087269030E-002
 chl2c          63   4.7278188567602929E-002   3.7855601011927406E-002  0.72597904999999996        6.5273866626363184E-005   1.6505012605371273E-006
 chl          63   1.1322110128047328E-005   2.3947850945807450E-004   4.7278188567602929E-002
 chl2c          64   2.5708982294816416E-002   2.5708982294816416E-002  0.48435739999999999        3.4605776850724826E-005   6.5135643337255000E-017
 chl          64   6.1567487596466624E-006   2.3947850945807450E-004   2.5708982294816416E-002
 chl2c          65   3.7953597170552002E-002   3.7953597170552002E-002  0.76379975000000000        6.5273866626363184E-005   1.4078025426527967E-007
 chl          65   9.0890708789759865E-006   2.3947850945807450E-004   3.7953597170552002E-002
 chl2c          66   3.1840477731474713E-002   3.1840477731474713E-002  0.35213202499999996        4.2268541352560248E-005   1.5478601896132425E-017
 chl          66   7.6251101475665775E-006   2.3947850945807450E-004   3.1840477731474713E-002
 chl2c          67   3.7937587124568600E-002   3.7937587124568600E-002  0.75736760000000003        6.5273866626363184E-005   9.1174328675407120E-017
 chl          67   9.0852368170275259E-006   2.3947850945807450E-004   3.7937587124568600E-002
 chl2c          68   5.0345241176831410E-002   3.7855407263856986E-002  0.72590779999999999        6.5273866626363184E-005   1.7655647960128078E-006
 chl          68   1.2056603315334863E-005   2.3947850945807450E-004   5.0345241176831410E-002
 chl2c          69   4.4552555573727122E-002   2.1732330561541505E-002  0.45524217500000003        6.5273866626363184E-005   1.6117984303406330E-006
 chl          69   1.0669379601344199E-005   2.3947850945807450E-004   4.4552555573727122E-002
 chl2c          70   3.2658010878182209E-002   3.2658010878182209E-002  0.48694062500000002        4.2268541352560248E-005   6.8909550560318116E-017
 chl          70   7.8208917669726572E-006   2.3947850945807450E-004   3.2658010878182209E-002
 chl2c          71   4.3481058864416305E-002   4.3481058864416305E-002  0.23986107500000001        2.9383401666226057E-005   1.7252850080920000E-017
 chl          71   1.0412779166509214E-005   2.3947850945807450E-004   4.3481058864416305E-002
 chl2c          72   3.7549776402781669E-002   3.7549776402781669E-002  0.62790522500000001        6.5273866626363184E-005   1.0965404965671505E-016
 chl          72   8.9923644834221321E-006   2.3947850945807450E-004   3.7549776402781669E-002
 chl2c          73   3.1852614277819484E-002   3.1852614277819484E-002  0.35362212500000001        4.2268541352560248E-005   1.9301885608587351E-017
 chl          73   7.6280165895951918E-006   2.3947850945807450E-004   3.1852614277819484E-002
 chl2c          74   4.1907685879915307E-002   3.7616827685877569E-002  0.64719590000000005        6.5273866626363184E-005   1.4624349712037691E-006
 chl          74   1.0035990149359313E-005   2.3947850945807450E-004   4.1907685879915307E-002
 chl2c          75   3.7826830779512356E-002   3.7826830779512356E-002  0.71554212500000003        6.5273866626363184E-005   8.6471134878132424E-017
 chl          75   9.0587130526004334E-006   2.3947850945807450E-004   3.7826830779512356E-002
 chl2c          76   5.6126497637305102E-002   3.7257729557919804E-002  0.55513977500000000        6.5273866626363184E-005   2.0378280250160311E-006
 chl          76   1.3441089995283966E-005   2.3947850945807450E-004   5.6126497637305102E-002
 chl2c          77   3.7138172437479272E-002   3.7138172437479272E-002  0.52973029999999999        6.5273866626363184E-005   8.0383507528429497E-007
 chl          77   8.8937941793244810E-006   2.3947850945807450E-004   3.7138172437479272E-002
 chl2c          78   4.7515248899399322E-002   4.7515248899399322E-002  0.45117492500000000        2.9383401666226057E-005   6.3394048034470394E-007
 chl          78   1.1378880982957565E-005   2.3947850945807450E-004   4.7515248899399322E-002
 prod   7.2263491819613813E-008   47.303936103195475        10.000000000000000     
 chl2c           1   3.7477407714772232E-002   3.7477407714772232E-002  0.60826437499999997        5.6316153256982735E-005   3.6517944376036965E-007
 chl           1   6.3188071130025668E-006   1.6860309979529141E-004   3.7477407714772232E-002
 chl2c           2   3.2640259920490348E-002   3.2640259920490348E-002  0.48302390000000001        3.6724754520275770E-005   6.0239150629761759E-008
 chl           2   5.5032490007186846E-006   1.6860309979529141E-004   3.2640259920490348E-002
 chl2c           3   3.7922212503796585E-002   3.7922212503796585E-002  0.75128689999999998        5.6316153256982735E-005   9.5868132730648454E-017
 chl           3   6.3938025792358638E-006   1.6860309979529141E-004   3.7922212503796585E-002
 chl2c           4   6.7603817326680596E-002   3.7976509103863923E-002  0.77318742499999993        5.6316153256982735E-005   2.0859817550693034E-006
 chl           4   1.1398213159272980E-005   1.6860309979529141E-004   6.7603817326680596E-002
 chl2c           5   6.3909329331229767E-002   2.5710500362372445E-002  0.48489679999999996        2.9974170480848478E-005   1.1032186242419847E-006
 chl           5   1.0775311031083477E-005   1.6860309979529141E-004   6.3909329331229767E-002
 chl2c           6   3.1261039902252048E-002   3.1261039902252048E-002  0.29222855000000003        3.6724754520275770E-005   5.6081443149449132E-017
 chl           6   5.2707082303439892E-006   1.6860309979529141E-004   3.1261039902252048E-002
 chl2c           7   4.3064391842467263E-002   4.3064391842467263E-002  0.22770740000000000        2.5672579382046084E-005   8.2693940864125311E-008
 chl           7   7.2607899554390418E-006   1.6860309979529141E-004   4.3064391842467263E-002
 chl2c           8   4.7969800906495587E-002   4.7969800906495587E-002  0.49578364999999996        2.5672579382046084E-005   3.6440674363325694E-008
 chl           8   8.0878571293981367E-006   1.6860309979529141E-004   4.7969800906495587E-002
 chl2c           9   7.7449873433083780E-002   2.4803669054600401E-002  0.28700202499999999        2.9974170480848478E-005   1.5897569288068724E-006
 chl           9   1.3058288739570915E-005   1.6860309979529141E-004   7.7449873433083780E-002
 chl2c          10   8.5111925660230986E-002   2.5387016219684602E-002  0.39094662499999999        2.9974170480848478E-005   1.6305657068536224E-006
 chl          10   1.4350134495861349E-005   1.6860309979529141E-004   8.5111925660230986E-002
 chl2c          11   2.1820572217820047E-002   2.1820572217820047E-002  0.49737575000000001        5.6316153256982735E-005   8.8157502372475771E-017
 chl          11   3.6790161152314767E-006   1.6860309979529141E-004   2.1820572217820047E-002
 chl2c          12   4.5290941298723353E-002   4.5290941298723353E-002  0.30768942500000002        2.5672579382046084E-005   4.0967879138669179E-018
 chl          12   7.6361930956113383E-006   1.6860309979529141E-004   4.5290941298723353E-002
 chl2c          13   3.7935816987997487E-002   3.7935816987997487E-002  0.75666275000000005        5.6316153256982735E-005   7.9763952968588325E-017
 chl          13   6.3960963374432517E-006   1.6860309979529141E-004   3.7935816987997487E-002
 chl2c          14   4.6856526101924839E-002   4.6856526101924839E-002  0.39804095000000000        2.5672579382046084E-005   4.3583015376320379E-017
 chl          14   7.9001555464235102E-006   1.6860309979529141E-004   4.6856526101924839E-002
 chl2c          15   5.5143722247764218E-002   2.0954299823745293E-002  0.25607262500000000        5.6316153256982735E-005   1.9788815769067855E-006
 chl          15   9.2974025052236220E-006   1.6860309979529141E-004   5.5143722247764218E-002
 chl2c          16   3.7823443882273475E-002   3.7823443882273475E-002  0.71433214999999994        5.6316153256982735E-005   9.9789196451309747E-017
 chl          16   6.3771498834845589E-006   1.6860309979529141E-004   3.7823443882273475E-002
 chl2c          17   3.7542254757581245E-002   3.7542254757581245E-002  0.62580860000000005        5.6316153256982735E-005   9.9739414445876245E-017
 chl          17   6.3297405254327247E-006   1.6860309979529141E-004   3.7542254757581245E-002
 chl2c          18   2.5694475239060960E-002   2.5694475239060960E-002  0.47925950000000000        2.9974170480848478E-005   9.2007165514201055E-017
 chl          18   4.3321681729190392E-006   1.6860309979529141E-004   2.5694475239060960E-002
 chl2c          19   4.6159712506513559E-002   3.7570220750293731E-002  0.63367130000000005        5.6316153256982735E-005   1.4018891767298474E-006
 chl          19   7.7826706142576670E-006   1.6860309979529141E-004   4.6159712506513559E-002
 chl2c          20   3.7020645196759419E-002   3.7020645196759419E-002  0.50678202500000002        5.6316153256982735E-005   8.7809159234856155E-017
 chl          20   6.2417955365953041E-006   1.6860309979529141E-004   3.7020645196759419E-002
 chl2c          21   4.2583353733267014E-002   3.7838475073783531E-002  0.71973185000000006        5.6316153256982735E-005   1.2744701027938649E-006
 chl          21   7.1796854391082138E-006   1.6860309979529141E-004   4.2583353733267014E-002
 chl2c          22   6.5284985005728380E-002   3.7613353106285476E-002  0.64616892500000001        5.6316153256982735E-005   2.0449043282971054E-006
 chl          22   1.1007250842054925E-005   1.6860309979529141E-004   6.5284985005728380E-002
 chl2c          23   3.2286562315070731E-002   3.2286562315070731E-002  0.41564179999999995        3.6724754520275770E-005   5.6798121599444689E-018
 chl          23   5.4436144880547657E-006   1.6860309979529141E-004   3.2286562315070731E-002
 chl2c          24   3.7348402796863071E-002   3.7348402796863071E-002  0.57597492500000003        5.6316153256982735E-005   7.1320411627501269E-017
 chl          24   6.2970564839542453E-006   1.6860309979529141E-004   3.7348402796863071E-002
 chl2c          25   4.5426679235459781E-002   4.5426679235459781E-002  0.31406487500000002        2.5672579382046084E-005   4.3365808723771180E-018
 chl          25   7.6590789325049183E-006   1.6860309979529141E-004   4.5426679235459781E-002
 chl2c          26   4.7955660680174553E-002   4.7955660680174553E-002  0.49427735000000000        2.5672579382046084E-005   3.9384591485061256E-018
 chl          26   8.0854730434086024E-006   1.6860309979529141E-004   4.7955660680174553E-002
 chl2c          27   4.5333133499525620E-002   4.5333133499525620E-002  0.30964730000000001        2.5672579382046084E-005   4.3228346239448835E-017
 chl          27   7.6433068314537869E-006   1.6860309979529141E-004   4.5333133499525620E-002
 chl2c          28   3.1209236063453518E-002   3.1209236063453518E-002  0.28776342500000002        3.6724754520275770E-005   4.2975683390313193E-017
 chl          28   5.2619739425412611E-006   1.6860309979529141E-004   3.1209236063453518E-002
 chl2c          29   5.5642316967206264E-002   3.7743217595736761E-002  0.68676297499999994        5.6316153256982735E-005   1.7049147567384778E-006
 chl          29   9.3814671204631145E-006   1.6860309979529141E-004   5.5642316967206264E-002
 chl2c          30   2.5380056985171612E-002   2.5380056985171612E-002  0.38930277499999999        2.9974170480848478E-005   1.0081900423193246E-016
 chl          30   4.2791562806810724E-006   1.6860309979529141E-004   2.5380056985171612E-002
 chl2c          31   4.2340698330128504E-002   3.7576959810037038E-002  0.63559385000000002        5.6316153256982735E-005   1.2773227146729948E-006
 chl          31   7.1387729859569845E-006   1.6860309979529141E-004   4.2340698330128504E-002
 chl2c          32   5.8849294728119159E-002   2.0893126428578448E-002  0.24722667500000001        5.6316153256982735E-005   2.1747574334924327E-006
 chl          32   9.9221735119275915E-006   1.6860309979529141E-004   5.8849294728119159E-002
 chl2c          33   4.9060691853509419E-002   3.7458922634011876E-002  0.60343137499999999        5.6316153256982735E-005   1.5037106884069668E-006
 chl          33   8.2717847246032884E-006   1.6860309979529141E-004   4.9060691853509419E-002
 chl2c          34   3.3251207332624606E-002   2.5350269098008315E-002  0.38241020000000003        2.9974170480848478E-005   5.4579660776032367E-007
 chl          34   5.6062566282164320E-006   1.6860309979529141E-004   3.3251207332624606E-002
 chl2c          35   2.5740370148566064E-002   2.5740370148566064E-002  0.49574644999999995        2.9974170480848478E-005   7.2891126763326835E-017
 chl          35   4.3399061969264243E-006   1.6860309979529141E-004   2.5740370148566064E-002
 chl2c          36   3.7770393924465726E-002   3.7770393924465726E-002  0.69587337500000002        5.6316153256982735E-005   7.5990269016687967E-017
 chl          36   6.3682054961541633E-006   1.6860309979529141E-004   3.7770393924465726E-002
 chl2c          37   2.1353674699533250E-002   2.1353674699533250E-002  0.33194060000000003        5.6316153256982735E-005   6.6755373623542904E-017
 chl          37   3.6002957463615938E-006   1.6860309979529141E-004   2.1353674699533250E-002
 chl2c          38   2.1543295686358745E-002   2.1543295686358745E-002  0.38455722500000000        5.6316153256982735E-005   1.0289975978125387E-016
 chl          38   3.6322664325266145E-006   1.6860309979529141E-004   2.1543295686358745E-002
 chl2c          39   2.5670077108751441E-002   2.5670077108751441E-002  0.47091117500000002        2.9974170480848478E-005   8.2910424062090986E-017
 chl          39   4.3280545725196446E-006   1.6860309979529141E-004   2.5670077108751441E-002
 chl2c          40   3.7687445774703773E-002   3.7687445774703773E-002  0.66875547499999999        5.6316153256982735E-005   9.9981404314472076E-017
 chl          40   6.3542201809820144E-006   1.6860309979529141E-004   3.7687445774703773E-002
 chl2c          41   2.5582381488167241E-002   2.5582381488167241E-002  0.44304987499999998        2.9974170480848478E-005   6.0126016375385502E-017
 chl          41   4.3132688190506766E-006   1.6860309979529141E-004   2.5582381488167241E-002
 chl2c          42   3.7949995630725070E-002   3.7949995630725070E-002  0.76234377499999995        5.6316153256982735E-005   8.4364227264776427E-017
 chl          42   6.3984869005580119E-006   1.6860309979529141E-004   3.7949995630725070E-002
 chl2c          43   2.1185090152268007E-002   2.1185090152268007E-002  0.29539925000000000        5.6316153256982735E-005   4.4443377479388173E-007
 chl          43   3.5718718691150880E-006   1.6860309979529141E-004   2.1185090152268007E-002
 chl2c          44   3.7536352708156646E-002   3.7536352708156646E-002  0.62417262500000004        5.6316153256982735E-005   7.2090237374068906E-017
 chl          44   6.3287454216045922E-006   1.6860309979529141E-004   3.7536352708156646E-002
 chl2c          45   4.6544927192009838E-002   4.6544927192009838E-002  0.37662252499999999        2.5672579382046084E-005   5.2337472674460454E-018
 chl          45   7.8476190043190070E-006   1.6860309979529141E-004   4.6544927192009838E-002
 chl2c          46   5.1655196151097975E-002   3.7083195475449568E-002  0.51876034999999998        5.6316153256982735E-005   1.6153592278476793E-006
 chl          46   8.7092261916089246E-006   1.6860309979529141E-004   5.1655196151097975E-002
 chl2c          47   3.7519784612651236E-002   3.7519784612651236E-002  0.61962282499999999        5.6316153256982735E-005   9.2026326622566602E-017
 chl          47   6.3259519893446758E-006   1.6860309979529141E-004   3.7519784612651236E-002
 chl2c          48   3.7823212136301673E-002   3.7823212136301673E-002  0.71424949999999998        5.6316153256982735E-005   8.8510060686284382E-017
 chl          48   6.3771108103953488E-006   1.6860309979529141E-004   3.7823212136301673E-002
 chl2c          49   3.7152990741888416E-002   3.7152990741888416E-002  0.53276120000000005        5.6316153256982735E-005   8.2380132145804913E-017
 chl          49   6.2641094057481503E-006   1.6860309979529141E-004   3.7152990741888416E-002
 chl2c          50   5.0582668017520177E-002   2.1533072915600981E-002  0.38132569999999999        5.6316153256982735E-005   1.6421396676594191E-006
 chl          50   8.5283946236700505E-006   1.6860309979529141E-004   5.0582668017520177E-002
 chl2c          51   2.0700971146093840E-002   2.0700971146093840E-002  0.22275920000000002        5.6316153256982735E-005   1.0932686465093849E-016
 chl          51   3.4902479040043078E-006   1.6860309979529141E-004   2.0700971146093840E-002
 chl2c          52   3.7581825176985564E-002   3.7581825176985564E-002  0.63698869999999996        5.6316153256982735E-005   9.7926272783785366E-017
 chl          52   6.3364122208044923E-006   1.6860309979529141E-004   3.7581825176985564E-002
 chl2c          53   3.7925801262726190E-002   3.7925801262726190E-002  0.75269794999999995        5.6316153256982735E-005   8.7715079975669456E-017
 chl          53   6.3944076551158128E-006   1.6860309979529141E-004   3.7925801262726190E-002
 chl2c          54   3.7082433371327092E-002   3.7082433371327092E-002  0.51861124999999997        5.6316153256982735E-005   7.1974581677301488E-017
 chl          54   6.2522132143581060E-006   1.6860309979529141E-004   3.7082433371327092E-002
 chl2c          55   6.4040552186594116E-002   3.7357235588660491E-002  0.57808280000000001        5.6316153256982735E-005   2.0279128547776897E-006
 chl          55   1.0797435611261896E-005   1.6860309979529141E-004   6.4040552186594116E-002
 chl2c          56   3.7507394187257688E-002   3.7507394187257688E-002  0.61626080000000005        5.6316153256982735E-005   9.8184512394611869E-017
 chl          56   6.3238629252155409E-006   1.6860309979529141E-004   3.7507394187257688E-002
 chl2c          57   3.7727617852646313E-002   3.7727617852646313E-002  0.68163462500000005        5.6316153256982735E-005   9.2865674361701734E-007
 chl          57   6.3609933178483441E-006   1.6860309979529141E-004   3.7727617852646313E-002
 chl2c          58   5.5646474188846974E-002   3.7765358178394853E-002  0.69416802499999997        5.6316153256982735E-005   1.7034511513608303E-006
 chl          58   9.3821680409182750E-006   1.6860309979529141E-004   5.5646474188846974E-002
 chl2c          59   3.7173699120809672E-002   3.7173699120809672E-002  0.53705127500000005        5.6316153256982735E-005   2.7997863298526450E-007
 chl          59   6.2676009026260099E-006   1.6860309979529141E-004   3.7173699120809672E-002
 chl2c          60   3.8427955396095372E-002   3.7607757740906807E-002  0.64452155000000000        5.6316153256982735E-005   1.1506626412024372E-006
 chl          60   6.4790723985768747E-006   1.6860309979529141E-004   3.8427955396095372E-002
 chl2c          61   3.7805373434125003E-002   3.7805373434125003E-002  0.70794139999999994        5.6316153256982735E-005   8.5849710956448348E-017
 chl          61   6.3741031499120368E-006   1.6860309979529141E-004   3.7805373434125003E-002
 chl2c          62   3.7956103087269030E-002   3.7956103087269030E-002  0.76481592499999995        5.6316153256982735E-005   7.0085799761823159E-017
 chl          62   6.3995166366631888E-006   1.6860309979529141E-004   3.7956103087269030E-002
 chl2c          63   4.8921826623951496E-002   3.7855601011927406E-002  0.72597904999999996        5.6316153256982735E-005   1.4770811743033823E-006
 chl          63   8.2483716164460383E-006   1.6860309979529141E-004   4.8921826623951496E-002
 chl2c          64   2.5708982294816416E-002   2.5708982294816416E-002  0.48435739999999999        2.9974170480848478E-005   5.8502987055243198E-017
 chl          64   4.3346141074883124E-006   1.6860309979529141E-004   2.5708982294816416E-002
 chl2c          65   3.7953597170552002E-002   3.7953597170552002E-002  0.76379975000000000        5.6316153256982735E-005   2.0101805999376911E-007
 chl          65   6.3990941313368687E-006   1.6860309979529141E-004   3.7953597170552002E-002
 chl2c          66   3.1840477731474713E-002   3.1840477731474713E-002  0.35213202499999996        3.6724754520275770E-005   4.3110446109985675E-018
 chl          66   5.3684032444895847E-006   1.6860309979529141E-004   3.1840477731474713E-002
 chl2c          67   3.7937587124568600E-002   3.7937587124568600E-002  0.75736760000000003        5.6316153256982735E-005   8.1912431966368177E-017
 chl          67   6.3963947879562021E-006   1.6860309979529141E-004   3.7937587124568600E-002
 chl2c          68   5.4356131846834764E-002   3.7855407263856986E-002  0.72590779999999999        5.6316153256982735E-005   1.6544496722839610E-006
 chl          68   9.1646123222578994E-006   1.6860309979529141E-004   5.4356131846834764E-002
 chl2c          69   4.4716879210855168E-002   2.1732330561541505E-002  0.45524217500000003        5.6316153256982735E-005   1.3962945404741893E-006
 chl          69   7.5394044481218061E-006   1.6860309979529141E-004   4.4716879210855168E-002
 chl2c          70   3.2658010878182209E-002   3.2658010878182209E-002  0.48694062500000002        3.6724754520275770E-005   5.2397799521189725E-017
 chl          70   5.5062418672098679E-006   1.6860309979529141E-004   3.2658010878182209E-002
 chl2c          71   4.3481058864416305E-002   4.3481058864416305E-002  0.23986107500000001        2.5672579382046084E-005   4.8167123919033562E-018
 chl          71   7.3310413069221227E-006   1.6860309979529141E-004   4.3481058864416305E-002
 chl2c          72   3.7549776402781669E-002   3.7549776402781669E-002  0.62790522500000001        5.6316153256982735E-005   9.8493623477302199E-017
 chl          72   6.3310086981290760E-006   1.6860309979529141E-004   3.7549776402781669E-002
 chl2c          73   3.1852614277819484E-002   3.1852614277819484E-002  0.35362212500000001        3.6724754520275770E-005   5.4037184615590178E-018
 chl          73   5.3704495038241224E-006   1.6860309979529141E-004   3.1852614277819484E-002
 chl2c          74   4.5532276183792977E-002   3.7616827685877569E-002  0.64719590000000005        5.6316153256982735E-005   1.3791272831565351E-006
 chl          74   7.6768829053228172E-006   1.6860309979529141E-004   4.5532276183792977E-002
 chl2c          75   3.7826830779512356E-002   3.7826830779512356E-002  0.71554212500000003        5.6316153256982735E-005   7.7690871804090405E-017
 chl          75   6.3777209248577225E-006   1.6860309979529141E-004   3.7826830779512356E-002
 chl2c          76   5.7526960433644143E-002   3.7257729557919804E-002  0.55513977500000000        5.6316153256982735E-005   1.8071125559109911E-006
 chl          76   9.6992238509134845E-006   1.6860309979529141E-004   5.7526960433644143E-002
 chl2c          77   3.7138172437479272E-002   3.7138172437479272E-002  0.52973029999999999        5.6316153256982735E-005   7.9915572694936620E-007
 chl          77   6.2616109936910585E-006   1.6860309979529141E-004   3.7138172437479272E-002
 chl2c          78   4.7515248899399322E-002   4.7515248899399322E-002  0.45117492500000000        2.5672579382046084E-005   3.7956272953287784E-007
 chl          78   8.0112182519835347E-006   1.6860309979529141E-004   4.7515248899399322E-002
 prod   1.9715540277464245E-008   40.660022696233554        10.000000000000000     
 chl2c           1   4.9917423895166756E-002   3.7477407714772232E-002  0.60826437499999997        4.8645208975353500E-005   1.3226668671041131E-006
 chl           1   6.2685148431015101E-006   1.2557769119388507E-004   4.9917423895166756E-002
 chl2c           2   3.2640259920490348E-002   3.2640259920490348E-002  0.48302390000000001        3.1922989166549733E-005   3.8569416191009053E-008
 chl           2   4.0988884807834805E-006   1.2557769119388507E-004   3.2640259920490348E-002
 chl2c           3   3.7922212503796585E-002   3.7922212503796585E-002  0.75128689999999998        4.8645208975353500E-005   2.3632947659577463E-016
 chl           3   4.7621838911906544E-006   1.2557769119388507E-004   3.7922212503796585E-002
 chl2c           4  0.16370542440820207        3.7976509103863923E-002  0.77318742499999993        4.8645208975353500E-005   5.0512288558380741E-006
 chl           4   2.0557749233097096E-005   1.2557769119388507E-004  0.16370542440820207     
 chl2c           5  0.12398619166440193        2.5710500362372445E-002  0.48489679999999996        2.6008558434744443E-005   2.1662534966630838E-006
 chl           5   1.5569899689138114E-005   1.2557769119388507E-004  0.12398619166440193     
 chl2c           6   3.1261039902252048E-002   3.1261039902252048E-002  0.29222855000000003        3.1922989166549733E-005   4.5423181400372494E-017
 chl           6   3.9256892152447264E-006   1.2557769119388507E-004   3.1261039902252048E-002
 chl2c           7   4.3064391842467263E-002   4.3064391842467263E-002  0.22770740000000000        2.2436630303230341E-005   6.3373110276743991E-008
 chl           7   5.4079269002458175E-006   1.2557769119388507E-004   4.3064391842467263E-002
 chl2c           8   4.7969800906495587E-002   4.7969800906495587E-002  0.49578364999999996        2.2436630303230341E-005   3.6864219857515541E-008
 chl           8   6.0239368448680507E-006   1.2557769119388507E-004   4.7969800906495587E-002
 chl2c           9  0.14348684118962765        2.4803669054600401E-002  0.28700202499999999        2.6008558434744443E-005   3.7315173911328616E-006
 chl           9   1.8018746233297089E-005   1.2557769119388507E-004  0.14348684118962765     
 chl2c          10  0.15543000384408698        2.5387016219684602E-002  0.39094662499999999        2.6008558434744443E-005   3.3551894664871081E-006
 chl          10   1.9518541024997123E-005   1.2557769119388507E-004  0.15543000384408698     
 chl2c          11   2.1820572217820047E-002   2.1820572217820047E-002  0.49737575000000001        4.8645208975353500E-005   1.9777970662408268E-016
 chl          11   2.7401770796432737E-006   1.2557769119388507E-004   2.1820572217820047E-002
 chl2c          12   4.5290941298723353E-002   4.5290941298723353E-002  0.30768942500000002        2.2436630303230341E-005   3.2026258034594287E-018
 chl          12   5.6875318402914569E-006   1.2557769119388507E-004   4.5290941298723353E-002
 chl2c          13   3.7935816987997487E-002   3.7935816987997487E-002  0.75666275000000005        4.8645208975353500E-005   2.0214818780294408E-016
 chl          13   4.7638923109064876E-006   1.2557769119388507E-004   3.7935816987997487E-002
 chl2c          14   4.6856526101924839E-002   4.6856526101924839E-002  0.39804095000000000        2.2436630303230341E-005   3.5166773071736804E-017
 chl          14   5.8841343652457329E-006   1.2557769119388507E-004   4.6856526101924839E-002
 chl2c          15  0.10107198813907831        2.0954299823745293E-002  0.25607262500000000        4.8645208975353500E-005   4.0613513033321604E-006
 chl          15   1.2692386914881190E-005   1.2557769119388507E-004  0.10107198813907831     
 chl2c          16   3.7823443882273475E-002   3.7823443882273475E-002  0.71433214999999994        4.8645208975353500E-005   2.4437215435091299E-016
 chl          16   4.7497807557373799E-006   1.2557769119388507E-004   3.7823443882273475E-002
 chl2c          17   3.7542254757581245E-002   3.7542254757581245E-002  0.62580860000000005        4.8645208975353500E-005   2.4427070746484446E-016
 chl          17   4.7144696746697001E-006   1.2557769119388507E-004   3.7542254757581245E-002
 chl2c          18   2.5694475239060960E-002   2.5694475239060960E-002  0.47925950000000000        2.6008558434744443E-005   2.0430134255267201E-016
 chl          18   3.2266528769597236E-006   1.2557769119388507E-004   2.5694475239060960E-002
 chl2c          19  0.12117608283136012        3.7570220750293731E-002  0.63367130000000005        4.8645208975353500E-005   3.6441916441343508E-006
 chl          19   1.5217012709881179E-005   1.2557769119388507E-004  0.12117608283136012     
 chl2c          20   3.7020645196759419E-002   3.7020645196759419E-002  0.50678202500000002        4.8645208975353500E-005   2.1946010977148083E-016
 chl          20   4.6489671503170389E-006   1.2557769119388507E-004   3.7020645196759419E-002
 chl2c          21  0.11857492136151522        3.7838475073783531E-002  0.71973185000000006        4.8645208975353500E-005   3.4529142080099047E-006
 chl          21   1.4890364858075564E-005   1.2557769119388507E-004  0.11857492136151522     
 chl2c          22  0.15449411815404793        3.7613353106285476E-002  0.64616892500000001        4.8645208975353500E-005   4.9384440766981443E-006
 chl          22   1.9401014660820622E-005   1.2557769119388507E-004  0.15449411815404793     
 chl2c          23   3.2286562315070731E-002   3.2286562315070731E-002  0.41564179999999995        3.1922989166549733E-005   4.4429463772966383E-018
 chl          23   4.0544719521140790E-006   1.2557769119388507E-004   3.2286562315070731E-002
 chl2c          24   3.7348402796863071E-002   3.7348402796863071E-002  0.57597492500000003        4.8645208975353500E-005   1.8345024824995967E-016
 chl          24   4.6901261930093045E-006   1.2557769119388507E-004   3.7348402796863071E-002
 chl2c          25   4.5426679235459781E-002   4.5426679235459781E-002  0.31406487500000002        2.2436630303230341E-005   3.3904060810633018E-018
 chl          25   5.7045774969942397E-006   1.2557769119388507E-004   4.5426679235459781E-002
 chl2c          26   4.7955660680174553E-002   4.7955660680174553E-002  0.49427735000000000        2.2436630303230341E-005   3.0786592887736377E-018
 chl          26   6.0221611478936963E-006   1.2557769119388507E-004   4.7955660680174553E-002
 chl2c          27   4.5333133499525620E-002   4.5333133499525620E-002  0.30964730000000001        2.2436630303230341E-005   3.4876843070898182E-017
 chl          27   5.6928302394545942E-006   1.2557769119388507E-004   4.5333133499525620E-002
 chl2c          28   3.1209236063453518E-002   3.1209236063453518E-002  0.28776342500000002        3.1922989166549733E-005   3.4670337350040228E-017
 chl          28   3.9191838087734269E-006   1.2557769119388507E-004   3.1209236063453518E-002
 chl2c          29  0.13451583817081147        3.7743217595736761E-002  0.68676297499999994        4.8645208975353500E-005   4.0687115352687260E-006
 chl          29   1.6892188386500779E-005   1.2557769119388507E-004  0.13451583817081147     
 chl2c          30   2.5380056985171612E-002   2.5380056985171612E-002  0.38930277499999999        2.6008558434744443E-005   2.1874124370324740E-016
 chl          30   3.1871689585670864E-006   1.2557769119388507E-004   2.5380056985171612E-002
 chl2c          31   9.4110799136946768E-002   3.7576959810037038E-002  0.63559385000000002        4.8645208975353500E-005   2.6868557942915487E-006
 chl          31   1.1818216872029247E-005   1.2557769119388507E-004   9.4110799136946768E-002
 chl2c          32  0.10723492460465714        2.0893126428578448E-002  0.24722667500000001        4.8645208975353500E-005   4.6061620484620578E-006
 chl          32   1.3466314247203183E-005   1.2557769119388507E-004  0.10723492460465714     
 chl2c          33  0.12544411789908211        3.7458922634011876E-002  0.60343137499999999        4.8645208975353500E-005   3.8518728999956698E-006
 chl          33   1.5752982699620243E-005   1.2557769119388507E-004  0.12544411789908211     
 chl2c          34   5.3596105574055683E-002   2.5350269098008315E-002  0.38241020000000003        2.6008558434744443E-005   8.1058499905016905E-007
 chl          34   6.7304751949736269E-006   1.2557769119388507E-004   5.3596105574055683E-002
 chl2c          35   2.5740370148566064E-002   2.5740370148566064E-002  0.49574644999999995        2.6008558434744443E-005   1.7053811468538721E-016
 chl          35   3.2324162537329268E-006   1.2557769119388507E-004   2.5740370148566064E-002
 chl2c          36   3.7770393924465726E-002   3.7770393924465726E-002  0.69587337500000002        4.8645208975353500E-005   1.9385984321294306E-016
 chl          36   4.7431188645179498E-006   1.2557769119388507E-004   3.7770393924465726E-002
 chl2c          37   2.1353674699533250E-002   2.1353674699533250E-002  0.33194060000000003        4.8645208975353500E-005   1.5892299445459146E-016
 chl          37   2.6815451672726630E-006   1.2557769119388507E-004   2.1353674699533250E-002
 chl2c          38   2.1543295686358745E-002   2.1543295686358745E-002  0.38455722500000000        4.8645208975353500E-005   2.2205569619034273E-016
 chl          38   2.7053573330001149E-006   1.2557769119388507E-004   2.1543295686358745E-002
 chl2c          39   2.5670077108751441E-002   2.5670077108751441E-002  0.47091117500000002        2.6008558434744443E-005   1.8867148252518709E-016
 chl          39   3.2235890160860064E-006   1.2557769119388507E-004   2.5670077108751441E-002
 chl2c          40   3.7687445774703773E-002   3.7687445774703773E-002  0.66875547499999999        4.8645208975353500E-005   2.4476368087737646E-016
 chl          40   4.7327024273820390E-006   1.2557769119388507E-004   3.7687445774703773E-002
 chl2c          41   2.5582381488167241E-002   2.5582381488167241E-002  0.44304987499999998        2.6008558434744443E-005   1.4590823190270463E-016
 chl          41   3.2125764025252275E-006   1.2557769119388507E-004   2.5582381488167241E-002
 chl2c          42   3.7949995630725070E-002   3.7949995630725070E-002  0.76234377499999995        4.8645208975353500E-005   2.1210602135624991E-016
 chl          42   4.7656728321244805E-006   1.2557769119388507E-004   3.7949995630725070E-002
 chl2c          43   5.2014226735936898E-002   2.1185090152268007E-002  0.29539925000000000        4.8645208975353500E-005   1.5354927217739873E-006
 chl          43   6.5318265027342044E-006   1.2557769119388507E-004   5.2014226735936898E-002
 chl2c          44   3.7536352708156646E-002   3.7536352708156646E-002  0.62417262500000004        4.8645208975353500E-005   1.8517807479230686E-016
 chl          44   4.7137285089296465E-006   1.2557769119388507E-004   3.7536352708156646E-002
 chl2c          45   4.6544927192009838E-002   4.6544927192009838E-002  0.37662252499999999        2.2436630303230341E-005   4.0932899842293130E-018
 chl          45   5.8450044935600752E-006   1.2557769119388507E-004   4.6544927192009838E-002
 chl2c          46  0.11629900690530678        3.7083195475449568E-002  0.51876034999999998        4.8645208975353500E-005   3.6461009294756501E-006
 chl          46   1.4604560775310122E-005   1.2557769119388507E-004  0.11629900690530678     
 chl2c          47   3.7519784612651236E-002   3.7519784612651236E-002  0.61962282499999999        4.8645208975353500E-005   2.2834534595126814E-016
 chl          47   4.7116479257485976E-006   1.2557769119388507E-004   3.7519784612651236E-002
 chl2c          48   3.7823212136301673E-002   3.7823212136301673E-002  0.71424949999999998        4.8645208975353500E-005   2.2094574203199062E-016
 chl          48   4.7497516536132973E-006   1.2557769119388507E-004   3.7823212136301673E-002
 chl2c          49   3.7152990741888416E-002   3.7152990741888416E-002  0.53276120000000005        4.8645208975353500E-005   2.0783066554408340E-016
 chl          49   4.6655867983141345E-006   1.2557769119388507E-004   3.7152990741888416E-002
 chl2c          50  0.10934352673687618        2.1533072915600981E-002  0.38132569999999999        4.8645208975353500E-005   3.7287115813577718E-006
 chl          50   1.3731107634613753E-005   1.2557769119388507E-004  0.10934352673687618     
 chl2c          51   2.0700971146093840E-002   2.0700971146093840E-002  0.22275920000000002        4.8645208975353500E-005   2.3207403902170687E-016
 chl          51   2.5995801619976972E-006   1.2557769119388507E-004   2.0700971146093840E-002
 chl2c          52   3.7581825176985564E-002   3.7581825176985564E-002  0.63698869999999996        4.8645208975353500E-005   2.4056426202977326E-016
 chl          52   4.7194388365780686E-006   1.2557769119388507E-004   3.7581825176985564E-002
 chl2c          53   3.7925801262726190E-002   3.7925801262726190E-002  0.75269794999999995        4.8645208975353500E-005   2.1926042739399101E-016
 chl          53   4.7626345592512855E-006   1.2557769119388507E-004   3.7925801262726190E-002
 chl2c          54   3.7082433371327092E-002   3.7082433371327092E-002  0.51861124999999997        4.8645208975353500E-005   1.8491879232904881E-016
 chl          54   4.6567263666223320E-006   1.2557769119388507E-004   3.7082433371327092E-002
 chl2c          55  0.14948512637173111        3.7357235588660491E-002  0.57808280000000001        4.8645208975353500E-005   4.9039755816711087E-006
 chl          55   1.8771997037588135E-005   1.2557769119388507E-004  0.14948512637173111     
 chl2c          56   3.7507394187257688E-002   3.7507394187257688E-002  0.61626080000000005        4.8645208975353500E-005   2.4109353942336880E-016
 chl          56   4.7100919647347656E-006   1.2557769119388507E-004   3.7507394187257688E-002
 chl2c          57   6.4408702831146469E-002   3.7727617852646313E-002  0.68163462500000005        4.8645208975353500E-005   1.7300637897088641E-006
 chl          57   8.0882961943284223E-006   1.2557769119388507E-004   6.4408702831146469E-002
 chl2c          58  0.14226944323864782        3.7765358178394853E-002  0.69416802499999997        4.8645208975353500E-005   4.3523823136226215E-006
 chl          58   1.7865868209348876E-005   1.2557769119388507E-004  0.14226944323864782     
 chl2c          59   4.2162747255439788E-002   3.7173699120809672E-002  0.53705127500000005        4.8645208975353500E-005   1.1128774550003213E-006
 chl          59   5.2947004547294424E-006   1.2557769119388507E-004   4.2162747255439788E-002
 chl2c          60  0.10757004101707855        3.7607757740906807E-002  0.64452155000000000        4.8645208975353500E-005   3.1405360834442217E-006
 chl          60   1.3508397392556241E-005   1.2557769119388507E-004  0.10757004101707855     
 chl2c          61   3.7805373434125003E-002   3.7805373434125003E-002  0.70794139999999994        4.8645208975353500E-005   2.1528785491835737E-016
 chl          61   4.7475115105800561E-006   1.2557769119388507E-004   3.7805373434125003E-002
 chl2c          62   3.7956103087269030E-002   3.7956103087269030E-002  0.76481592499999995        4.8645208975353500E-005   1.8066940382156698E-016
 chl          62   4.7664397924163380E-006   1.2557769119388507E-004   3.7956103087269030E-002
 chl2c          63  0.12749302591510281        3.7855601011927406E-002  0.72597904999999996        4.8645208975353500E-005   3.7615477701741446E-006
 chl          63   1.6010279837740766E-005   1.2557769119388507E-004  0.12749302591510281     
 chl2c          64   2.5708982294816416E-002   2.5708982294816416E-002  0.48435739999999999        2.6008558434744443E-005   1.4264510036320254E-016
 chl          64   3.2284746395275144E-006   1.2557769119388507E-004   2.5708982294816416E-002
 chl2c          65   3.7953597170552002E-002   3.7953597170552002E-002  0.76379975000000000        4.8645208975353500E-005   8.5143294319376088E-007
 chl          65   4.7661251051806890E-006   1.2557769119388507E-004   3.7953597170552002E-002
 chl2c          66   3.1840477731474713E-002   3.1840477731474713E-002  0.35213202499999996        3.1922989166549733E-005   3.3704070943341994E-018
 chl          66   3.9984536800289055E-006   1.2557769119388507E-004   3.1840477731474713E-002
 chl2c          67   3.7937587124568600E-002   3.7937587124568600E-002  0.75736760000000003        4.8645208975353500E-005   2.0681857799379972E-016
 chl          67   4.7641146005701856E-006   1.2557769119388507E-004   3.7937587124568600E-002
 chl2c          68  0.14153336834569644        3.7855407263856986E-002  0.72590779999999999        4.8645208975353500E-005   4.2762115032989541E-006
 chl          68   1.7773433623746255E-005   1.2557769119388507E-004  0.14153336834569644     
 chl2c          69   9.8203168470531690E-002   2.1732330561541505E-002  0.45524217500000003        4.8645208975353500E-005   3.0455266364735303E-006
 chl          69   1.2332127164453499E-005   1.2557769119388507E-004   9.8203168470531690E-002
 chl2c          70   3.2658010878182209E-002   3.2658010878182209E-002  0.48694062500000002        3.1922989166549733E-005   4.2392366830921345E-017
 chl          70   4.1011176050669044E-006   1.2557769119388507E-004   3.2658010878182209E-002
 chl2c          71   4.3481058864416305E-002   4.3481058864416305E-002  0.23986107500000001        2.2436630303230341E-005   3.7665019207890064E-018
 chl          71   5.4602509828588096E-006   1.2557769119388507E-004   4.3481058864416305E-002
 chl2c          72   3.7549776402781669E-002   3.7549776402781669E-002  0.62790522500000001        4.8645208975353500E-005   2.4172647648381170E-016
 chl          72   4.7154142255079487E-006   1.2557769119388507E-004   3.7549776402781669E-002
 chl2c          73   3.1852614277819484E-002   3.1852614277819484E-002  0.35362212500000001        3.1922989166549733E-005   4.2265104317226520E-018
 chl          73   3.9999777594979496E-006   1.2557769119388507E-004   3.1852614277819484E-002
 chl2c          74  0.12259087646174179        3.7616827685877569E-002  0.64719590000000005        4.8645208975353500E-005   3.6785066045559241E-006
 chl          74   1.5394679227500323E-005   1.2557769119388507E-004  0.12259087646174179     
 chl2c          75   3.7826830779512356E-002   3.7826830779512356E-002  0.71554212500000003        4.8645208975353500E-005   1.9760848792078600E-016
 chl          75   4.7502060744729498E-006   1.2557769119388507E-004   3.7826830779512356E-002
 chl2c          76  0.13724426801548689        3.7257729557919804E-002  0.55513977500000000        4.8645208975353500E-005   4.4344415638523900E-006
 chl          76   1.7234818306979610E-005   1.2557769119388507E-004  0.13724426801548689     
 chl2c          77   8.2019021149758342E-002   3.7138172437479272E-002  0.52973029999999999        4.8645208975353500E-005   2.3603773532671735E-006
 chl          77   1.0299759309969082E-005   1.2557769119388507E-004   8.2019021149758342E-002
 chl2c          78   4.7515248899399322E-002   4.7515248899399322E-002  0.45117492500000000        2.2436630303230341E-005   1.8095071386514268E-007
 chl          78   5.9668552532893555E-006   1.2557769119388507E-004   4.7515248899399322E-002
 prod   1.5387289233282185E-008   35.009813205191357        10.000000000000000     
 chl2c           1  0.10301415754711246        3.7477407714772232E-002  0.60826437499999997        4.0566484755009379E-005   2.5154759402274117E-006
 chl           1   8.5042351994080642E-006   8.2554043074309862E-005  0.10301415754711246     
 chl2c           2   3.2640259920490348E-002   3.2640259920490348E-002  0.48302390000000001        2.6809196032207293E-005   2.1155189814129728E-008
 chl           2   2.6945854234328302E-006   8.2554043074309862E-005   3.2640259920490348E-002
 chl2c           3   3.7922212503796585E-002   3.7922212503796585E-002  0.75128689999999998        4.0566484755009379E-005   3.3770546834203200E-016
 chl           3   3.1306319645115554E-006   8.2554043074309862E-005   3.7922212503796585E-002
 chl2c           4  0.24037325433271939        3.7976509103863923E-002  0.77318742499999993        4.0566484755009379E-005   7.0750992894604409E-006
 chl           4   1.9843783992095357E-005   8.2554043074309862E-005  0.24037325433271939     
 chl2c           5  0.14852469852999345        2.5710500362372445E-002  0.48489679999999996        2.1823758125643214E-005   2.3362944278110486E-006
 chl           5   1.2261314360043965E-005   8.2554043074309862E-005  0.14852469852999345     
 chl2c           6   3.1261039902252048E-002   3.1261039902252048E-002  0.29222855000000003        2.6809196032207293E-005   3.4375940023603644E-017
 chl           6   2.5807252346382351E-006   8.2554043074309862E-005   3.1261039902252048E-002
 chl2c           7   4.3064391842467263E-002   4.3064391842467263E-002  0.22770740000000000        1.8965333349539299E-005   4.4775701114117550E-008
 chl           7   3.5551396591320008E-006   8.2554043074309862E-005   4.3064391842467263E-002
 chl2c           8   4.7969800906495587E-002   4.7969800906495587E-002  0.49578364999999996        1.8965333349539299E-005   3.1865706636351668E-008
 chl           8   3.9601010103009047E-006   8.2554043074309862E-005   4.7969800906495587E-002
 chl2c           9  0.17795647259392877        2.4803669054600401E-002  0.28700202499999999        2.1823758125643214E-005   5.1108170718503373E-006
 chl           9   1.4691026303871438E-005   8.2554043074309862E-005  0.17795647259392877     
 chl2c          10  0.18839114239630758        2.5387016219684602E-002  0.39094662499999999        2.1823758125643214E-005   3.9676512295907726E-006
 chl          10   1.5552450484203220E-005   8.2554043074309862E-005  0.18839114239630758     
 chl2c          11   2.1820572217820047E-002   2.1820572217820047E-002  0.49737575000000001        4.0566484755009379E-005   2.6534957253857021E-016
 chl          11   1.8013764587760052E-006   8.2554043074309862E-005   2.1820572217820047E-002
 chl2c          12   4.5290941298723353E-002   4.5290941298723353E-002  0.30768942500000002        1.8965333349539299E-005   2.3089653705061440E-018
 chl          12   3.7389503188508472E-006   8.2554043074309862E-005   4.5290941298723353E-002
 chl2c          13   3.7935816987997487E-002   3.7935816987997487E-002  0.75666275000000005        4.0566484755009379E-005   2.9484142055244493E-016
 chl          13   3.1317550696862803E-006   8.2554043074309862E-005   3.7935816987997487E-002
 chl2c          14   4.6856526101924839E-002   4.6856526101924839E-002  0.39804095000000000        1.8965333349539299E-005   2.6509676156725852E-017
 chl          14   3.8681956741308275E-006   8.2554043074309862E-005   4.6856526101924839E-002
 chl2c          15  0.12441093774960393        2.0954299823745293E-002  0.25607262500000000        4.0566484755009379E-005   4.9079449306787387E-006
 chl          15   1.0270625913896086E-005   8.2554043074309862E-005  0.12441093774960393     
 chl2c          16   3.7823443882273475E-002   3.7823443882273475E-002  0.71433214999999994        4.0566484755009379E-005   3.4754003636539045E-016
 chl          16   3.1224782154759461E-006   8.2554043074309862E-005   3.7823443882273475E-002
 chl2c          17   3.7542254757581245E-002   3.7542254757581245E-002  0.62580860000000005        4.0566484755009379E-005   3.4741656807286178E-016
 chl          17   3.0992649163640763E-006   8.2554043074309862E-005   3.7542254757581245E-002
 chl2c          18   2.5694475239060960E-002   2.5694475239060960E-002  0.47925950000000000        2.1823758125643214E-005   2.7237063726755943E-016
 chl          18   2.1211828156572266E-006   8.2554043074309862E-005   2.5694475239060960E-002
 chl2c          19  0.18699209332253910        3.7570220750293731E-002  0.63367130000000005        4.0566484755009379E-005   5.3805779226573483E-006
 chl          19   1.5436953326704263E-005   8.2554043074309862E-005  0.18699209332253910     
 chl2c          20   3.7020645196759419E-002   3.7020645196759419E-002  0.50678202500000002        4.0566484755009379E-005   3.1677014646772378E-016
 chl          20   3.0562039382120197E-006   8.2554043074309862E-005   3.7020645196759419E-002
 chl2c          21  0.19104261698490807        3.7838475073783531E-002  0.71973185000000006        4.0566484755009379E-005   5.2751874290848184E-006
 chl          21   1.5771340431600982E-005   8.2554043074309862E-005  0.19104261698490807     
 chl2c          22  0.22314484464453371        3.7613353106285476E-002  0.64616892500000001        4.0566484755009379E-005   6.9136154028442402E-006
 chl          22   1.8421509116595018E-005   8.2554043074309862E-005  0.22314484464453371     
 chl2c          23   3.2286562315070731E-002   3.2286562315070731E-002  0.41564179999999995        2.6809196032207293E-005   3.2052115114189903E-018
 chl          23   2.6653862560797389E-006   8.2554043074309862E-005   3.2286562315070731E-002
 chl2c          24   3.7348402796863071E-002   3.7348402796863071E-002  0.57597492500000003        4.0566484755009379E-005   2.7063509406668874E-016
 chl          24   3.0832616532489090E-006   8.2554043074309862E-005   3.7348402796863071E-002
 chl2c          25   4.5426679235459781E-002   4.5426679235459781E-002  0.31406487500000002        1.8965333349539299E-005   2.4445812232082090E-018
 chl          25   3.7501560343270043E-006   8.2554043074309862E-005   4.5426679235459781E-002
 chl2c          26   4.7955660680174553E-002   4.7955660680174553E-002  0.49427735000000000        1.8965333349539299E-005   2.2194503480176885E-018
 chl          26   3.9589336774481181E-006   8.2554043074309862E-005   4.7955660680174553E-002
 chl2c          27   4.5333133499525620E-002   4.5333133499525620E-002  0.30964730000000001        1.8965333349539299E-005   2.6288199312890419E-017
 chl          27   3.7424334556132776E-006   8.2554043074309862E-005   4.5333133499525620E-002
 chl2c          28   3.1209236063453518E-002   3.1209236063453518E-002  0.28776342500000002        2.6809196032207293E-005   2.6130479818234059E-017
 chl          28   2.5764486182986464E-006   8.2554043074309862E-005   3.1209236063453518E-002
 chl2c          29  0.19502760681845122        3.7743217595736761E-002  0.68676297499999994        4.0566484755009379E-005   5.5247025308057201E-006
 chl          29   1.6100317453969990E-005   8.2554043074309862E-005  0.19502760681845122     
 chl2c          30   2.5380056985171612E-002   2.5380056985171612E-002  0.38930277499999999        2.1823758125643214E-005   2.8760692465906671E-016
 chl          30   2.0952263175822961E-006   8.2554043074309862E-005   2.5380056985171612E-002
 chl2c          31  0.12418121780643976        3.7576959810037038E-002  0.63559385000000002        4.0566484755009379E-005   3.1304122187096685E-006
 chl          31   1.0251661603813083E-005   8.2554043074309862E-005  0.12418121780643976     
 chl2c          32  0.13381333048196861        2.0893126428578448E-002  0.24722667500000001        4.0566484755009379E-005   5.9165417099905055E-006
 chl          32   1.1046831448525298E-005   8.2554043074309862E-005  0.13381333048196861     
 chl2c          33  0.18996669447780118        3.7458922634011876E-002  0.60343137499999999        4.0566484755009379E-005   5.6234691478874894E-006
 chl          33   1.5682518678604661E-005   8.2554043074309862E-005  0.18996669447780118     
 chl2c          34   4.3641524002567690E-002   2.5350269098008315E-002  0.38241020000000003        2.1823758125643214E-005   5.3755842527607208E-007
 chl          34   3.6027842523365009E-006   8.2554043074309862E-005   4.3641524002567690E-002
 chl2c          35   2.5740370148566064E-002   2.5740370148566064E-002  0.49574644999999995        2.1823758125643214E-005   2.3503502762220188E-016
 chl          35   2.1249716259934026E-006   8.2554043074309862E-005   2.5740370148566064E-002
 chl2c          36   3.7770393924465726E-002   3.7770393924465726E-002  0.69587337500000002        4.0566484755009379E-005   2.8417927744617681E-016
 chl          36   3.1180987269739948E-006   8.2554043074309862E-005   3.7770393924465726E-002
 chl2c          37   2.1353674699533250E-002   2.1353674699533250E-002  0.33194060000000003        4.0566484755009379E-005   2.2160273802675518E-016
 chl          37   1.7628321809400686E-006   8.2554043074309862E-005   2.1353674699533250E-002
 chl2c          38   2.1543295686358745E-002   2.1543295686358745E-002  0.38455722500000000        4.0566484755009379E-005   2.9104544841694702E-016
 chl          38   1.7784861600542537E-006   8.2554043074309862E-005   2.1543295686358745E-002
 chl2c          39   2.5670077108751441E-002   2.5670077108751441E-002  0.47091117500000002        2.1823758125643214E-005   2.5539388925195292E-016
 chl          39   2.1191686513567219E-006   8.2554043074309862E-005   2.5670077108751441E-002
 chl2c          40   3.7687445774703773E-002   3.7687445774703773E-002  0.66875547499999999        4.0566484755009379E-005   3.4801641440018289E-016
 chl          40   3.1112510218456123E-006   8.2554043074309862E-005   3.7687445774703773E-002
 chl2c          41   2.5582381488167241E-002   2.5582381488167241E-002  0.44304987499999998        2.1823758125643214E-005   2.0617226666081725E-016
 chl          41   2.1119290233175857E-006   8.2554043074309862E-005   2.5582381488167241E-002
 chl2c          42   3.7949995630725070E-002   3.7949995630725070E-002  0.76234377499999995        4.0566484755009379E-005   3.0751062376605256E-016
 chl          42   3.1329255739687486E-006   8.2554043074309862E-005   3.7949995630725070E-002
 chl2c          43   9.3562417062630993E-002   2.1185090152268007E-002  0.29539925000000000        4.0566484755009379E-005   2.7774597782832598E-006
 chl          43   7.7239558083249827E-006   8.2554043074309862E-005   9.3562417062630993E-002
 chl2c          44   3.7536352708156646E-002   3.7536352708156646E-002  0.62417262500000004        4.0566484755009379E-005   2.7289514765561336E-016
 chl          44   3.0987776783216515E-006   8.2554043074309862E-005   3.7536352708156646E-002
 chl2c          45   4.6544927192009838E-002   4.6544927192009838E-002  0.37662252499999999        1.8965333349539299E-005   2.9524378309725620E-018
 chl          45   3.8424719242997966E-006   8.2554043074309862E-005   4.6544927192009838E-002
 chl2c          46  0.15879901810090849        3.7083195475449568E-002  0.51876034999999998        4.0566484755009379E-005   4.6419036055551105E-006
 chl          46   1.3109500980460512E-005   8.2554043074309862E-005  0.15879901810090849     
 chl2c          47   3.7519784612651236E-002   3.7519784612651236E-002  0.61962282499999999        4.0566484755009379E-005   3.2784936461040794E-016
 chl          47   3.0974099150516384E-006   8.2554043074309862E-005   3.7519784612651236E-002
 chl2c          48   3.7823212136301673E-002   3.7823212136301673E-002  0.71424949999999998        4.0566484755009379E-005   3.1863081476586989E-016
 chl          48   3.1224590839090079E-006   8.2554043074309862E-005   3.7823212136301673E-002
 chl2c          49   3.7152990741888416E-002   3.7152990741888416E-002  0.53276120000000005        4.0566484755009379E-005   3.0208978871090197E-016
 chl          49   3.0671295980452920E-006   8.2554043074309862E-005   3.7152990741888416E-002
 chl2c          50  0.14967852845750126        2.1533072915600981E-002  0.38132569999999999        4.0566484755009379E-005   4.9976513996839130E-006
 chl          50   1.2356567685579874E-005   8.2554043074309862E-005  0.14967852845750126     
 chl2c          51   2.0700971146093840E-002   2.0700971146093840E-002  0.22275920000000002        4.0566484755009379E-005   3.0130911347707012E-016
 chl          51   1.7089488636746765E-006   8.2554043074309862E-005   2.0700971146093840E-002
 chl2c          52   3.7581825176985564E-002   3.7581825176985564E-002  0.63698869999999996        4.0566484755009379E-005   3.4289540432336190E-016
 chl          52   3.1025316144720490E-006   8.2554043074309862E-005   3.7581825176985564E-002
 chl2c          53   3.7925801262726190E-002   3.7925801262726190E-002  0.75269794999999995        4.0566484755009379E-005   3.1651980354604692E-016
 chl          53   3.1309282310708132E-006   8.2554043074309862E-005   3.7925801262726190E-002
 chl2c          54   3.7082433371327092E-002   3.7082433371327092E-002  0.51861124999999997        4.0566484755009379E-005   2.7255630235581601E-016
 chl          54   3.0613048018367624E-006   8.2554043074309862E-005   3.7082433371327092E-002
 chl2c          55  0.21359434096407282        3.7357235588660491E-002  0.57808280000000001        4.0566484755009379E-005   6.8712126407760267E-006
 chl          55   1.7633076424376893E-005   8.2554043074309862E-005  0.21359434096407282     
 chl2c          56   3.7507394187257688E-002   3.7507394187257688E-002  0.61626080000000005        4.0566484755009379E-005   3.4354223431684833E-016
 chl          56   3.0963870353399903E-006   8.2554043074309862E-005   3.7507394187257688E-002
 chl2c          57   7.5270427415851632E-002   3.7727617852646313E-002  0.68163462500000005        4.0566484755009379E-005   1.7162472523321541E-006
 chl          57   6.2138781071099299E-006   8.2554043074309862E-005   7.5270427415851632E-002
 chl2c          58  0.21573371202075614        3.7765358178394853E-002  0.69416802499999997        4.0566484755009379E-005   6.3488882419442278E-006
 chl          58   1.7809690154742263E-005   8.2554043074309862E-005  0.21573371202075614     
 chl2c          59   9.1285727666400793E-002   3.7173699120809672E-002  0.53705127500000005        4.0566484755009379E-005   2.2307428762377861E-006
 chl          59   7.5360058938417708E-006   8.2554043074309862E-005   9.1285727666400793E-002
 chl2c          60  0.17365991530738936        3.7607757740906807E-002  0.64452155000000000        4.0566484755009379E-005   4.8214881316326470E-006
 chl          60   1.4336328128567225E-005   8.2554043074309862E-005  0.17365991530738936     
 chl2c          61   3.7805373434125003E-002   3.7805373434125003E-002  0.70794139999999994        4.0566484755009379E-005   3.1152689724861130E-016
 chl          61   3.1209864269211254E-006   8.2554043074309862E-005   3.7805373434125003E-002
 chl2c          62   3.7956103087269030E-002   3.7956103087269030E-002  0.76481592499999995        4.0566484755009379E-005   2.6698760120629692E-016
 chl          62   3.1334297691993533E-006   8.2554043074309862E-005   3.7956103087269030E-002
 chl2c          63  0.19664908077057208        3.7855601011927406E-002  0.72597904999999996        4.0566484755009379E-005   5.4704985333446866E-006
 chl          63   1.6234176684457247E-005   8.2554043074309862E-005  0.19664908077057208     
 chl2c          64   2.5708982294816416E-002   2.5708982294816416E-002  0.48435739999999999        2.1823758125643214E-005   2.0223872508798907E-016
 chl          64   2.1223804317629438E-006   8.2554043074309862E-005   2.5708982294816416E-002
 chl2c          65   7.8700958364727847E-002   3.7953597170552002E-002  0.76379975000000000        4.0566484755009379E-005   1.7796873424247533E-006
 chl          65   6.4970823068312095E-006   8.2554043074309862E-005   7.8700958364727847E-002
 chl2c          66   3.1840477731474713E-002   3.1840477731474713E-002  0.35213202499999996        2.6809196032207293E-005   2.4301366211007383E-018
 chl          66   2.6285601701507675E-006   8.2554043074309862E-005   3.1840477731474713E-002
 chl2c          67   3.7937587124568600E-002   3.7937587124568600E-002  0.75736760000000003        4.0566484755009379E-005   3.0080244319821604E-016
 chl          67   3.1319012016170195E-006   8.2554043074309862E-005   3.7937587124568600E-002
 chl2c          68  0.21753808466125790        3.7855407263856986E-002  0.72590779999999999        4.0566484755009379E-005   6.3004921232243938E-006
 chl          68   1.7958648411428350E-005   8.2554043074309862E-005  0.21753808466125790     
 chl2c          69  0.13240937392575514        2.1732330561541505E-002  0.45524217500000003        4.0566484755009379E-005   3.7872236072345435E-006
 chl          69   1.0930929158509190E-005   8.2554043074309862E-005  0.13240937392575514     
 chl2c          70   3.2658010878182209E-002   3.2658010878182209E-002  0.48694062500000002        2.6809196032207293E-005   3.2045057512199463E-017
 chl          70   2.6960508367587343E-006   8.2554043074309862E-005   3.2658010878182209E-002
 chl2c          71   4.3481058864416305E-002   4.3481058864416305E-002  0.23986107500000001        1.8965333349539299E-005   2.7162775322941267E-018
 chl          71   3.5895372064096262E-006   8.2554043074309862E-005   4.3481058864416305E-002
 chl2c          72   3.7549776402781669E-002   3.7549776402781669E-002  0.62790522500000001        4.0566484755009379E-005   3.4431521604070841E-016
 chl          72   3.0998858585859421E-006   8.2554043074309862E-005   3.7549776402781669E-002
 chl2c          73   3.1852614277819484E-002   3.1852614277819484E-002  0.35362212500000001        2.6809196032207293E-005   3.0487349670859471E-018
 chl          73   2.6295620911204871E-006   8.2554043074309862E-005   3.1852614277819484E-002
 chl2c          74  0.19231897246319568        3.7616827685877569E-002  0.64719590000000005        4.0566484755009379E-005   5.5501070358030023E-006
 chl          74   1.5876708736733667E-005   8.2554043074309862E-005  0.19231897246319568     
 chl2c          75   3.7826830779512356E-002   3.7826830779512356E-002  0.71554212500000003        4.0566484755009379E-005   2.8901482507628719E-016
 chl          75   3.1227578175364931E-006   8.2554043074309862E-005   3.7826830779512356E-002
 chl2c          76  0.19830690933412601        3.7257729557919804E-002  0.55513977500000000        4.0566484755009379E-005   6.2576709639167658E-006
 chl          76   1.6371037135102698E-005   8.2554043074309862E-005  0.19830690933412601     
 chl2c          77  0.14015684377929055        3.7138172437479272E-002  0.52973029999999999        4.0566484755009379E-005   3.8656020755745932E-006
 chl          77   1.1570514118514870E-005   8.2554043074309862E-005  0.14015684377929055     
 chl2c          78   4.7515248899399322E-002   4.7515248899399322E-002  0.45117492500000000        1.8965333349539299E-005   5.5426413287117804E-008
 chl          78   3.9225759043275656E-006   8.2554043074309862E-005   4.7515248899399322E-002
 prod   1.1075557838388257E-008   29.096726273306185        10.000000000000000     
 chl2c           1  0.24309344511469108        3.7477407714772232E-002  0.60826437499999997        3.2684136553542773E-005   6.6172333982307802E-006
 chl           1   4.3849225839455823E-006   1.8038012427183230E-005  0.24309344511469108     
 chl2c           2   3.2640259920490348E-002   3.2640259920490348E-002  0.48302390000000001        2.1760529357148219E-005   2.9560469956205359E-009
 chl           2   5.8876541407229562E-007   1.8038012427183230E-005   3.2640259920490348E-002
 chl2c           3   3.7922212503796585E-002   3.7922212503796585E-002  0.75128689999999998        3.2684136553542773E-005   5.8245639967457117E-016
 chl           3   6.8404134040976613E-007   1.8038012427183230E-005   3.7922212503796585E-002
 chl2c           4  0.36964771896827392        3.7976509103863923E-002  0.77318742499999993        3.2684136553542773E-005   1.1574268690279374E-005
 chl           4   6.6677101484296597E-006   1.8038012427183230E-005  0.36964771896827392     
 chl2c           5  0.12001875194181054        2.5710500362372445E-002  0.48489679999999996        1.7722604499014719E-005   1.4133451682364434E-006
 chl           5   2.1648997390214001E-006   1.8038012427183230E-005  0.12001875194181054     
 chl2c           6   3.1261039902252048E-002   3.1261039902252048E-002  0.29222855000000003        2.1760529357148219E-005   1.7028955512070651E-017
 chl           6   5.6388702624349324E-007   1.8038012427183230E-005   3.1261039902252048E-002
 chl2c           7   4.3064391842467263E-002   4.3064391842467263E-002  0.22770740000000000        1.5509219928643111E-005   1.7731508128840049E-008
 chl           7   7.7679603522351266E-007   1.8038012427183230E-005   4.3064391842467263E-002
 chl2c           8   4.7969800906495587E-002   4.7969800906495587E-002  0.49578364999999996        1.5509219928643111E-005   1.6512385197180482E-008
 chl           8   8.6527986488087277E-007   1.8038012427183230E-005   4.7969800906495587E-002
 chl2c           9  0.21551311580308191        2.4803669054600401E-002  0.28700202499999999        1.7722604499014719E-005   7.6668602383366365E-006
 chl           9   3.8874282610769701E-006   1.8038012427183230E-005  0.21551311580308191     
 chl2c          10  0.20174767747961173        2.5387016219684602E-002  0.39094662499999999        1.7722604499014719E-005   3.6940676633483148E-006
 chl          10   3.6391271135325906E-006   1.8038012427183230E-005  0.20174767747961173     
 chl2c          11   2.1820572217820047E-002   2.1820572217820047E-002  0.49737575000000001        3.2684136553542773E-005   3.9906762345997374E-016
 chl          11   3.9359975283328717E-007   1.8038012427183230E-005   2.1820572217820047E-002
 chl2c          12   4.5290941298723353E-002   4.5290941298723353E-002  0.30768942500000002        1.5509219928643111E-005   9.6339165174756164E-019
 chl          12   8.1695856198519800E-007   1.8038012427183230E-005   4.5290941298723353E-002
 chl2c          13   3.7935816987997487E-002   3.7935816987997487E-002  0.75666275000000005        3.2684136553542773E-005   5.3512327673349641E-016
 chl          13   6.8428673826484732E-007   1.8038012427183230E-005   3.7935816987997487E-002
 chl2c          14   4.6856526101924839E-002   4.6856526101924839E-002  0.39804095000000000        1.5509219928643111E-005   1.3051505397173760E-017
 chl          14   8.4519860012115565E-007   1.8038012427183230E-005   4.6856526101924839E-002
 chl2c          15  0.14083148486119823        2.0954299823745293E-002  0.25607262500000000        3.2684136553542773E-005   5.1140195752839501E-006
 chl          15   2.5403200740649605E-006   1.8038012427183230E-005  0.14083148486119823     
 chl2c          16   3.7823443882273475E-002   3.7823443882273475E-002  0.71433214999999994        3.2684136553542773E-005   5.9266062261689423E-016
 chl          16   6.8225975078731650E-007   1.8038012427183230E-005   3.7823443882273475E-002
 chl2c          17   3.7542254757581245E-002   3.7542254757581245E-002  0.62580860000000005        3.2684136553542773E-005   5.9253393886248926E-016
 chl          17   6.7718765786172925E-007   1.8038012427183230E-005   3.7542254757581245E-002
 chl2c          18   2.5694475239060960E-002   2.5694475239060960E-002  0.47925950000000000        1.7722604499014719E-005   4.0460305224918927E-016
 chl          18   4.6347726367213339E-007   1.8038012427183230E-005   2.5694475239060960E-002
 chl2c          19  0.30875285215213977        3.7570220750293731E-002  0.63367130000000005        3.2684136553542773E-005   9.8402847651820453E-006
 chl          19   5.5692877840485637E-006   1.8038012427183230E-005  0.30875285215213977     
 chl2c          20   3.7020645196759419E-002   3.7020645196759419E-002  0.50678202500000002        3.2684136553542773E-005   5.5994043741554564E-016
 chl          20   6.6777885812148755E-007   1.8038012427183230E-005   3.7020645196759419E-002
 chl2c          21  0.33063272767129115        3.7838475073783531E-002  0.71973185000000006        3.2684136553542773E-005   9.9945519842940215E-006
 chl          21   5.9639572505682385E-006   1.8038012427183230E-005  0.33063272767129115     
 chl2c          22  0.33509445574994828        3.7613353106285476E-002  0.64616892500000001        3.2684136553542773E-005   1.1375119365328328E-005
 chl          22   6.0444379570977684E-006   1.8038012427183230E-005  0.33509445574994828     
 chl2c          23   3.2286562315070731E-002   3.2286562315070731E-002  0.41564179999999995        2.1760529357148219E-005   1.3386148626531715E-018
 chl          23   5.8238541227027164E-007   1.8038012427183230E-005   3.2286562315070731E-002
 chl2c          24   3.7348402796863071E-002   3.7348402796863071E-002  0.57597492500000003        3.2684136553542773E-005   5.0614012429665177E-016
 chl          24   6.7369095378526096E-007   1.8038012427183230E-005   3.7348402796863071E-002
 chl2c          25   4.5426679235459781E-002   4.5426679235459781E-002  0.31406487500000002        1.5509219928643111E-005   1.0201228436748593E-018
 chl          25   8.1940700457488998E-007   1.8038012427183230E-005   4.5426679235459781E-002
 chl2c          26   4.7955660680174553E-002   4.7955660680174553E-002  0.49427735000000000        1.5509219928643111E-005   9.2595443486106240E-019
 chl          26   8.6502480330277082E-007   1.8038012427183230E-005   4.7955660680174553E-002
 chl2c          27   4.5333133499525620E-002   4.5333133499525620E-002  0.30964730000000001        1.5509219928643111E-005   1.2940222954502793E-017
 chl          27   8.1771962542759955E-007   1.8038012427183230E-005   4.5333133499525620E-002
 chl2c          28   3.1209236063453518E-002   3.1209236063453518E-002  0.28776342500000002        2.1760529357148219E-005   1.2860999182863842E-017
 chl          28   5.6295258795546958E-007   1.8038012427183230E-005   3.1209236063453518E-002
 chl2c          29  0.28571278661229621        3.7743217595736761E-002  0.68676297499999994        3.2684136553542773E-005   7.9954856141095583E-006
 chl          29   5.1536907955177498E-006   1.8038012427183230E-005  0.28571278661229621     
 chl2c          30   2.5380056985171612E-002   2.5380056985171612E-002  0.38930277499999999        1.7722604499014719E-005   4.1616157661195961E-016
 chl          30   4.5780578330114409E-007   1.8038012427183230E-005   2.5380056985171612E-002
 chl2c          31  0.13192657358095689        3.7576959810037038E-002  0.63559385000000002        3.2684136553542773E-005   2.7206661584560268E-006
 chl          31   2.3796931737290031E-006   1.8038012427183230E-005  0.13192657358095689     
 chl2c          32  0.16442573885458669        2.0893126428578448E-002  0.24722667500000001        3.2684136553542773E-005   8.0230020606563222E-006
 chl          32   2.9659135208078193E-006   1.8038012427183230E-005  0.16442573885458669     
 chl2c          33  0.30500504090389324        3.7458922634011876E-002  0.60343137499999999        3.2684136553542773E-005   1.0078706096403204E-005
 chl          33   5.5016847181779557E-006   1.8038012427183230E-005  0.30500504090389324     
 chl2c          34   2.5350269098008315E-002   2.5350269098008315E-002  0.38241020000000003        1.7722604499014719E-005   3.6485949035944977E-016
 chl          34   4.5726846902231299E-007   1.8038012427183230E-005   2.5350269098008315E-002
 chl2c          35   2.5740370148566064E-002   2.5740370148566064E-002  0.49574644999999995        1.7722604499014719E-005   3.7350313667076345E-016
 chl          35   4.6430511662013090E-007   1.8038012427183230E-005   2.5740370148566064E-002
 chl2c          36   3.7770393924465726E-002   3.7770393924465726E-002  0.69587337500000002        3.2684136553542773E-005   5.2257077246947186E-016
 chl          36   6.8130283498911876E-007   1.8038012427183230E-005   3.7770393924465726E-002
 chl2c          37   2.1353674699533250E-002   2.1353674699533250E-002  0.33194060000000003        3.2684136553542773E-005   3.6122691781731414E-016
 chl          37   3.8517784959620891E-007   1.8038012427183230E-005   2.1353674699533250E-002
 chl2c          38   2.1543295686358745E-002   2.1543295686358745E-002  0.38455722500000000        3.2684136553542773E-005   4.1868793731250826E-016
 chl          38   3.8859823531302190E-007   1.8038012427183230E-005   2.1543295686358745E-002
 chl2c          39   2.5670077108751441E-002   2.5670077108751441E-002  0.47091117500000002        1.7722604499014719E-005   3.9097914513434992E-016
 chl          39   4.6303716989441025E-007   1.8038012427183230E-005   2.5670077108751441E-002
 chl2c          40   3.7687445774703773E-002   3.7687445774703773E-002  0.66875547499999999        3.2684136553542773E-005   5.9314907119610646E-016
 chl          40   6.7980661523290081E-007   1.8038012427183230E-005   3.7687445774703773E-002
 chl2c          41   2.5582381488167241E-002   2.5582381488167241E-002  0.44304987499999998        1.7722604499014719E-005   3.4632109627913670E-016
 chl          41   4.6145531520050292E-007   1.8038012427183230E-005   2.5582381488167241E-002
 chl2c          42   3.7949995630725070E-002   3.7949995630725070E-002  0.76234377499999995        3.2684136553542773E-005   5.4962070713487180E-016
 chl          42   6.8454249279856811E-007   1.8038012427183230E-005   3.7949995630725070E-002
 chl2c          43  0.16387458813273448        2.1185090152268007E-002  0.29539925000000000        3.2684136553542773E-005   6.0147949745861588E-006
 chl          43   2.9559718572377982E-006   1.8038012427183230E-005  0.16387458813273448     
 chl2c          44   3.7536352708156646E-002   3.7536352708156646E-002  0.62417262500000004        3.2684136553542773E-005   5.0892060469761303E-016
 chl          44   6.7708119662086247E-007   1.8038012427183230E-005   3.7536352708156646E-002
 chl2c          45   4.6544927192009838E-002   4.6544927192009838E-002  0.37662252499999999        1.5509219928643111E-005   1.2327160527212291E-018
 chl          45   8.3957797511181207E-007   1.8038012427183230E-005   4.6544927192009838E-002
 chl2c          46  0.20419193540545150        3.7083195475449568E-002  0.51876034999999998        3.2684136553542773E-005   5.5029715463676093E-006
 chl          46   3.6832166683741294E-006   1.8038012427183230E-005  0.20419193540545150     
 chl2c          47   3.7519784612651236E-002   3.7519784612651236E-002  0.61962282499999999        3.2684136553542773E-005   5.7199381298538923E-016
 chl          47   6.7678234110824109E-007   1.8038012427183230E-005   3.7519784612651236E-002
 chl2c          48   3.7823212136301673E-002   3.7823212136301673E-002  0.71424949999999998        3.2684136553542773E-005   5.6198682187385365E-016
 chl          48   6.8225557055059714E-007   1.8038012427183230E-005   3.7823212136301673E-002
 chl2c          49   3.7152990741888416E-002   3.7152990741888416E-002  0.53276120000000005        3.2684136553542773E-005   5.4347197532146996E-016
 chl          49   6.7016610870920675E-007   1.8038012427183230E-005   3.7152990741888416E-002
 chl2c          50  0.20775628470064039        2.1533072915600981E-002  0.38132569999999999        3.2684136553542773E-005   7.4590594154372826E-006
 chl          50   3.7475104452555687E-006   1.8038012427183230E-005  0.20775628470064039     
 chl2c          51   2.0700971146093840E-002   2.0700971146093840E-002  0.22275920000000002        3.2684136553542773E-005   4.2605767172821373E-016
 chl          51   3.7340437478800220E-007   1.8038012427183230E-005   2.0700971146093840E-002
 chl2c          52   3.7581825176985564E-002   3.7581825176985564E-002  0.63698869999999996        3.2684136553542773E-005   5.8787021726890575E-016
 chl          52   6.7790142957869322E-007   1.8038012427183230E-005   3.7581825176985564E-002
 chl2c          53   3.7925801262726190E-002   3.7925801262726190E-002  0.75269794999999995        3.2684136553542773E-005   5.5966441685407527E-016
 chl          53   6.8410607448793645E-007   1.8038012427183230E-005   3.7925801262726190E-002
 chl2c          54   3.7082433371327092E-002   3.7082433371327092E-002  0.51861124999999997        3.2684136553542773E-005   5.0850473711199671E-016
 chl          54   6.6889339398219222E-007   1.8038012427183230E-005   3.7082433371327092E-002
 chl2c          55  0.31497698292122300        3.7357235588660491E-002  0.57808280000000001        3.2684136553542773E-005   1.1309552917120583E-005
 chl          55   5.6815587322097005E-006   1.8038012427183230E-005  0.31497698292122300     
 chl2c          56   3.7507394187257688E-002   3.7507394187257688E-002  0.61626080000000005        3.2684136553542773E-005   5.8854041757051610E-016
 chl          56   6.7655884246101420E-007   1.8038012427183230E-005   3.7507394187257688E-002
 chl2c          57   3.7727617852646313E-002   3.7727617852646313E-002  0.68163462500000005        3.2684136553542773E-005   5.9046839675105239E-007
 chl          57   6.8053123967405412E-007   1.8038012427183230E-005   3.7727617852646313E-002
 chl2c          58  0.34247530839186002        3.7765358178394853E-002  0.69416802499999997        3.2684136553542773E-005   1.1046826087168901E-005
 chl          58   6.1775738687757801E-006   1.8038012427183230E-005  0.34247530839186002     
 chl2c          59  0.22213960209936726        3.7173699120809672E-002  0.53705127500000005        3.2684136553542773E-005   6.1909885841570676E-006
 chl          59   4.0069569032379247E-006   1.8038012427183230E-005  0.22213960209936726     
 chl2c          60  0.30342376662613441        3.7607757740906807E-002  0.64452155000000000        3.2684136553542773E-005   9.3694729477643490E-006
 chl          60   5.4731616731049564E-006   1.8038012427183230E-005  0.30342376662613441     
 chl2c          61   3.7805373434125003E-002   3.7805373434125003E-002  0.70794139999999994        3.2684136553542773E-005   5.5412489119740144E-016
 chl          61   6.8193379581904959E-007   1.8038012427183230E-005   3.7805373434125003E-002
 chl2c          62   3.7956103087269030E-002   3.7956103087269030E-002  0.76481592499999995        3.2684136553542773E-005   5.0161924137602989E-016
 chl          62   6.8465265917560654E-007   1.8038012427183230E-005   3.7956103087269030E-002
 chl2c          63  0.32912115535490671        3.7855601011927406E-002  0.72597904999999996        3.2684136553542773E-005   9.8390209124684039E-006
 chl          63   5.9366914903407102E-006   1.8038012427183230E-005  0.32912115535490671     
 chl2c          64   2.5708982294816416E-002   2.5708982294816416E-002  0.48435739999999999        1.7722604499014719E-005   3.4237489700463325E-016
 chl          64   4.6373894212413217E-007   1.8038012427183230E-005   2.5708982294816416E-002
 chl2c          65  0.23030045908980185        3.7953597170552002E-002  0.76379975000000000        3.2684136553542773E-005   5.3882469245076089E-006
 chl          65   4.1541625430478490E-006   1.8038012427183230E-005  0.23030045908980185     
 chl2c          66   3.1840477731474713E-002   3.1840477731474713E-002  0.35213202499999996        2.1760529357148219E-005   1.0140795609468264E-018
 chl          66   5.7433893300779179E-007   1.8038012427183230E-005   3.1840477731474713E-002
 chl2c          67   3.7937587124568600E-002   3.7937587124568600E-002  0.75736760000000003        3.2684136553542773E-005   5.4199990803854109E-016
 chl          67   6.8431866801031497E-007   1.8038012427183230E-005   3.7937587124568600E-002
 chl2c          68  0.35052453449317028        3.7855407263856986E-002  0.72590779999999999        3.2684136553542773E-005   1.1077251009112730E-005
 chl          68   6.3227659092204223E-006   1.8038012427183230E-005  0.35052453449317028     
 chl2c          69  0.16079154216401373        2.1732330561541505E-002  0.45524217500000003        3.2684136553542773E-005   4.0625640283009765E-006
 chl          69   2.9003598357404359E-006   1.8038012427183230E-005  0.16079154216401373     
 chl2c          70   3.2658010878182209E-002   3.2658010878182209E-002  0.48694062500000002        2.1760529357148219E-005   1.5845296281086704E-017
 chl          70   5.8908560606773583E-007   1.8038012427183230E-005   3.2658010878182209E-002
 chl2c          71   4.3481058864416305E-002   4.3481058864416305E-002  0.23986107500000001        1.5509219928643111E-005   4.4406768385598980E-009
 chl          71   7.8431188014342688E-007   1.8038012427183230E-005   4.3481058864416305E-002
 chl2c          72   3.7549776402781669E-002   3.7549776402781669E-002  0.62790522500000001        3.2684136553542773E-005   5.8934002002163424E-016
 chl          72   6.7732333339132732E-007   1.8038012427183230E-005   3.7549776402781669E-002
 chl2c          73   3.1852614277819484E-002   3.1852614277819484E-002  0.35362212500000001        2.1760529357148219E-005   1.2730527540197141E-018
 chl          73   5.7455785218158181E-007   1.8038012427183230E-005   3.1852614277819484E-002
 chl2c          74  0.31894884769241549        3.7616827685877569E-002  0.64719590000000005        3.2684136553542773E-005   1.0276920115244673E-005
 chl          74   5.7532032783115621E-006   1.8038012427183230E-005  0.31894884769241549     
 chl2c          75   3.7826830779512356E-002   3.7826830779512356E-002  0.71554212500000003        3.2684136553542773E-005   5.2830439341070306E-016
 chl          75   6.8232084368180098E-007   1.8038012427183230E-005   3.7826830779512356E-002
 chl2c          76  0.29557154402322250        3.7257729557919804E-002  0.55513977500000000        3.2684136553542773E-005   1.0330478749737783E-005
 chl          76   5.3315231842126230E-006   1.8038012427183230E-005  0.29557154402322250     
 chl2c          77  0.26005261621784609        3.7138172437479272E-002  0.52973029999999999        3.2684136553542773E-005   8.3479156717664733E-006
 chl          77   4.6908323230590192E-006   1.8038012427183230E-005  0.26005261621784609     
 chl2c          78   4.7515248899399322E-002   4.7515248899399322E-002  0.45117492500000000        1.5509219928643111E-005   1.6346652312613767E-017
 chl          78   8.5708065012806929E-007   1.8038012427183230E-005   4.7515248899399322E-002
 prod   4.6098587720827520E-009   23.363335730635182        10.000000000000000     
 chl2c           1  0.32510502671027741        3.7477407714772232E-002  0.60826437499999997        2.6379657800057693E-005   9.2113720431342716E-006
 chl           1   4.4544502704914219E-006   1.3701573044150673E-005  0.32510502671027741     
 chl2c           2   3.2640259920490348E-002   3.2640259920490348E-002  0.48302390000000001        1.7677448364118521E-005   7.7656044829168048E-019
 chl           2   4.4722290548066214E-007   1.3701573044150673E-005   3.2640259920490348E-002
 chl2c           3   3.7922212503796585E-002   3.7922212503796585E-002  0.75128689999999998        2.6379657800057693E-005   6.1866868642192148E-016
 chl           3   5.1959396461657285E-007   1.3701573044150673E-005   3.7922212503796585E-002
 chl2c           4  0.40919473803617384        3.7976509103863923E-002  0.77318742499999993        2.6379657800057693E-005   1.1464663864865790E-005
 chl           4   5.6066115924847353E-006   1.3701573044150673E-005  0.40919473803617384     
 chl2c           5   2.5710500362372445E-002   2.5710500362372445E-002  0.48489679999999996        1.4421170912933994E-005   4.3546034517171941E-016
 chl           5   3.5227429871670840E-007   1.3701573044150673E-005   2.5710500362372445E-002
 chl2c           6   3.1261039902252048E-002   3.1261039902252048E-002  0.29222855000000003        1.7677448364118521E-005   1.4158146655862436E-017
 chl           6   4.2832542165681527E-007   1.3701573044150673E-005   3.1261039902252048E-002
 chl2c           7   4.3064391842467263E-002   4.3064391842467263E-002  0.22770740000000000        1.2689296684068284E-005   1.3119107320388655E-008
 chl           7   5.9004991043149156E-007   1.3701573044150673E-005   4.3064391842467263E-002
 chl2c           8   4.7969800906495587E-002   4.7969800906495587E-002  0.49578364999999996        1.2689296684068284E-005   1.4541986520700881E-008
 chl           8   6.5726173103371448E-007   1.3701573044150673E-005   4.7969800906495587E-002
 chl2c           9  0.23040228873403396        2.4803669054600401E-002  0.28700202499999999        1.4421170912933994E-005   8.4241845147237525E-006
 chl           9   3.1568737886288601E-006   1.3701573044150673E-005  0.23040228873403396     
 chl2c          10  0.11025542596477392        2.5387016219684602E-002  0.39094662499999999        1.4421170912933994E-005   1.1072843767761499E-006
 chl          10   1.5106727723702965E-006   1.3701573044150673E-005  0.11025542596477392     
 chl2c          11   2.1820572217820047E-002   2.1820572217820047E-002  0.49737575000000001        2.6379657800057693E-005   4.5786264244216331E-016
 chl          11   2.9897616410762623E-007   1.3701573044150673E-005   2.1820572217820047E-002
 chl2c          12   4.5290941298723353E-002   4.5290941298723353E-002  0.30768942500000002        1.2689296684068284E-005   7.9724740190286970E-019
 chl          12   6.2055714044279833E-007   1.3701573044150673E-005   4.5290941298723353E-002
 chl2c          13   3.7935816987997487E-002   3.7935816987997487E-002  0.75666275000000005        2.6379657800057693E-005   6.7488099065502893E-016
 chl          13   5.1978036745057951E-007   1.3701573044150673E-005   3.7935816987997487E-002
 chl2c          14   4.6856526101924839E-002   4.6856526101924839E-002  0.39804095000000000        1.2689296684068284E-005   1.0839629928350728E-017
 chl          14   6.4200811498067574E-007   1.3701573044150673E-005   4.6856526101924839E-002
 chl2c          15  0.10824729921666137        2.0954299823745293E-002  0.25607262500000000        2.6379657800057693E-005   2.4732643638641707E-006
 chl          15   1.4831582770491199E-006   1.3701573044150673E-005  0.10824729921666137     
 chl2c          16   3.7823443882273475E-002   3.7823443882273475E-002  0.71433214999999994        2.6379657800057693E-005   6.1866868642192148E-016
 chl          16   5.1824067913430389E-007   1.3701573044150673E-005   3.7823443882273475E-002
 chl2c          17   3.7542254757581245E-002   3.7542254757581245E-002  0.62580860000000005        2.6379657800057693E-005   6.1866868642192148E-016
 chl          17   5.1438794580311259E-007   1.3701573044150673E-005   3.7542254757581245E-002
 chl2c          18   2.5694475239060960E-002   2.5694475239060960E-002  0.47925950000000000        1.4421170912933994E-005   4.6174412101108355E-016
 chl          18   3.5205472931911456E-007   1.3701573044150673E-005   2.5694475239060960E-002
 chl2c          19  0.36645449995733331        3.7570220750293731E-002  0.63367130000000005        2.6379657800057693E-005   1.1461976129129743E-005
 chl          19   5.0210030985231122E-006   1.3701573044150673E-005  0.36645449995733331     
 chl2c          20   3.7020645196759419E-002   3.7020645196759419E-002  0.50678202500000002        2.6379657800057693E-005   6.9567803877932270E-016
 chl          20   5.0724107430498492E-007   1.3701573044150673E-005   3.7020645196759419E-002
 chl2c          21  0.40866793516634992        3.7838475073783531E-002  0.71973185000000006        2.6379657800057693E-005   1.2471848127718975E-005
 chl          21   5.5993935644839752E-006   1.3701573044150673E-005  0.40866793516634992     
 chl2c          22  0.36818426821818839        3.7613353106285476E-002  0.64616892500000001        2.6379657800057693E-005   1.1288328322326801E-005
 chl          22   5.0447036446986711E-006   1.3701573044150673E-005  0.36818426821818839     
 chl2c          23   3.2286562315070731E-002   3.2286562315070731E-002  0.41564179999999995        1.7677448364118521E-005   1.1078908089534120E-018
 chl          23   4.4237669190446409E-007   1.3701573044150673E-005   3.2286562315070731E-002
 chl2c          24   3.7348402796863071E-002   3.7348402796863071E-002  0.57597492500000003        2.6379657800057693E-005   6.4978574282571034E-016
 chl          24   5.1173186900358061E-007   1.3701573044150673E-005   3.7348402796863071E-002
 chl2c          25   4.5426679235459781E-002   4.5426679235459781E-002  0.31406487500000002        1.2689296684068284E-005   8.4420987871686712E-019
 chl          25   6.2241696369785486E-007   1.3701573044150673E-005   4.5426679235459781E-002
 chl2c          26   4.7955660680174553E-002   4.7955660680174553E-002  0.49427735000000000        1.2689296684068284E-005   7.6625752711344433E-019
 chl          26   6.5706798768991601E-007   1.3701573044150673E-005   4.7955660680174553E-002
 chl2c          27   4.5333133499525620E-002   4.5333133499525620E-002  0.30964730000000001        1.2689296684068284E-005   1.0746885111074870E-017
 chl          27   6.2113523996398406E-007   1.3701573044150673E-005   4.5333133499525620E-002
 chl2c          28   3.1209236063453518E-002   3.1209236063453518E-002  0.28776342500000002        1.7677448364118521E-005   1.0680861949645327E-017
 chl          28   4.2761562757554976E-007   1.3701573044150673E-005   3.1209236063453518E-002
 chl2c          29  0.28826812539043439        3.7743217595736761E-002  0.68676297499999994        2.6379657800057693E-005   6.5526948867243430E-006
 chl          29   3.9497267763374217E-006   1.3701573044150673E-005  0.28826812539043439     
 chl2c          30   2.5380056985171612E-002   2.5380056985171612E-002  0.38930277499999999        1.4421170912933994E-005   4.6971978922166606E-016
 chl          30   3.4774670464703537E-007   1.3701573044150673E-005   2.5380056985171612E-002
 chl2c          31   3.7576959810037038E-002   3.7576959810037038E-002  0.63559385000000002        2.6379657800057693E-005   2.8162001672247613E-007
 chl          31   5.1486345961433663E-007   1.3701573044150673E-005   3.7576959810037038E-002
 chl2c          32  0.17454282469518875        2.0893126428578448E-002  0.24722667500000001        2.6379657800057693E-005   7.8306635506214634E-006
 chl          32   2.3915112618935147E-006   1.3701573044150673E-005  0.17454282469518875     
 chl2c          33  0.36551099002104659        3.7458922634011876E-002  0.60343137499999999        2.6379657800057693E-005   1.2227448290710532E-005
 chl          33   5.0080755282131979E-006   1.3701573044150673E-005  0.36551099002104659     
 chl2c          34   2.5350269098008315E-002   2.5350269098008315E-002  0.38241020000000003        1.4421170912933994E-005   4.3293496733718839E-016
 chl          34   3.4733856373523652E-007   1.3701573044150673E-005   2.5350269098008315E-002
 chl2c          35   2.5740370148566064E-002   2.5740370148566064E-002  0.49574644999999995        1.4421170912933994E-005   4.3939168780176964E-016
 chl          35   3.5268356177405344E-007   1.3701573044150673E-005   2.5740370148566064E-002
 chl2c          36   3.7770393924465726E-002   3.7770393924465726E-002  0.69587337500000002        2.6379657800057693E-005   6.1866868642192148E-016
 chl          36   5.1751381126241191E-007   1.3701573044150673E-005   3.7770393924465726E-002
 chl2c          37   2.1353674699533250E-002   2.1353674699533250E-002  0.33194060000000003        2.6379657800057693E-005   4.3018828026965692E-016
 chl          37   2.9257893365668700E-007   1.3701573044150673E-005   2.1353674699533250E-002
 chl2c          38   2.1543295686358745E-002   2.1543295686358745E-002  0.38455722500000000        2.6379657800057693E-005   4.7144027355953976E-016
 chl          38   2.9517703945838044E-007   1.3701573044150673E-005   2.1543295686358745E-002
 chl2c          39   2.5670077108751441E-002   2.5670077108751441E-002  0.47091117500000002        1.4421170912933994E-005   4.5211683870648734E-016
 chl          39   3.5172043655453799E-007   1.3701573044150673E-005   2.5670077108751441E-002
 chl2c          40   3.7687445774703773E-002   3.7687445774703773E-002  0.66875547499999999        2.6379657800057693E-005   6.1866868642192148E-016
 chl          40   5.1637729112957141E-007   1.3701573044150673E-005   3.7687445774703773E-002
 chl2c          41   2.5582381488167241E-002   2.5582381488167241E-002  0.44304987499999998        1.4421170912933994E-005   4.1870593221846224E-016
 chl          41   3.5051886860345143E-007   1.3701573044150673E-005   2.5582381488167241E-002
 chl2c          42   3.7949995630725070E-002   3.7949995630725070E-002  0.76234377499999995        2.6379657800057693E-005   6.8710536551394681E-016
 chl          42   5.1997463715957847E-007   1.3701573044150673E-005   3.7949995630725070E-002
 chl2c          43  0.19918463822381696        2.1185090152268007E-002  0.29539925000000000        2.6379657800057693E-005   8.0660954983987909E-006
 chl          43   2.7291428698963542E-006   1.3701573044150673E-005  0.19918463822381696     
 chl2c          44   3.7536352708156646E-002   3.7536352708156646E-002  0.62417262500000004        2.6379657800057693E-005   6.5223215430225860E-016
 chl          44   5.1430707844181127E-007   1.3701573044150673E-005   3.7536352708156646E-002
 chl2c          45   4.6544927192009838E-002   4.6544927192009838E-002  0.37662252499999999        1.2689296684068284E-005   1.0202108798360032E-018
 chl          45   6.3773871975599766E-007   1.3701573044150673E-005   4.6544927192009838E-002
 chl2c          46  0.15809461203920450        3.7083195475449568E-002  0.51876034999999998        2.6379657800057693E-005   2.9992876404585196E-006
 chl          46   2.1661448747418228E-006   1.3701573044150673E-005  0.15809461203920450     
 chl2c          47   3.7519784612651236E-002   3.7519784612651236E-002  0.61962282499999999        2.6379657800057693E-005   7.0555804102840604E-016
 chl          47   5.1408006947104137E-007   1.3701573044150673E-005   3.7519784612651236E-002
 chl2c          48   3.7823212136301673E-002   3.7823212136301673E-002  0.71424949999999998        2.6379657800057693E-005   6.9736544474275311E-016
 chl          48   5.1823750384994363E-007   1.3701573044150673E-005   3.7823212136301673E-002
 chl2c          49   3.7152990741888416E-002   3.7152990741888416E-002  0.53276120000000005        2.6379657800057693E-005   6.8194681862198745E-016
 chl          49   5.0905441645863780E-007   1.3701573044150673E-005   3.7152990741888416E-002
 chl2c          50  0.23626021752615228        2.1533072915600981E-002  0.38132569999999999        2.6379657800057693E-005   8.1914682211983837E-006
 chl          50   3.2371366278615027E-006   1.3701573044150673E-005  0.23626021752615228     
 chl2c          51   2.0700971146093840E-002   2.0700971146093840E-002  0.22275920000000002        2.6379657800057693E-005   4.7641364162186215E-016
 chl          51   2.8363586824306024E-007   1.3701573044150673E-005   2.0700971146093840E-002
 chl2c          52   3.7581825176985564E-002   3.7581825176985564E-002  0.63698869999999996        2.6379657800057693E-005   6.1866868642192148E-016
 chl          52   5.1493012279496852E-007   1.3701573044150673E-005   3.7581825176985564E-002
 chl2c          53   3.7925801262726190E-002   3.7925801262726190E-002  0.75269794999999995        2.6379657800057693E-005   9.9299943818105019E-009
 chl          53   5.1964313625918473E-007   1.3701573044150673E-005   3.7925801262726190E-002
 chl2c          54   3.7082433371327092E-002   3.7082433371327092E-002  0.51861124999999997        2.6379657800057693E-005   6.5186678634109841E-016
 chl          54   5.0808766949208867E-007   1.3701573044150673E-005   3.7082433371327092E-002
 chl2c          55  0.36309789323350389        3.7357235588660491E-002  0.57808280000000001        2.6379657800057693E-005   1.2877897610887688E-005
 chl          55   4.9750123063160756E-006   1.3701573044150673E-005  0.36309789323350389     
 chl2c          56   3.7507394187257688E-002   3.7507394187257688E-002  0.61626080000000005        2.6379657800057693E-005   6.1866868642192148E-016
 chl          56   5.1391030115246356E-007   1.3701573044150673E-005   3.7507394187257688E-002
 chl2c          57   3.7727617852646313E-002   3.7727617852646313E-002  0.68163462500000005        2.6379657800057693E-005   7.1671833703851838E-016
 chl          57   5.1692771178983643E-007   1.3701573044150673E-005   3.7727617852646313E-002
 chl2c          58  0.38553935938193351        3.7765358178394853E-002  0.69416802499999997        2.6379657800057693E-005   1.1437634846332192E-005
 chl          58   5.2824956939666189E-006   1.3701573044150673E-005  0.38553935938193351     
 chl2c          59  0.31584527217887903        3.7173699120809672E-002  0.53705127500000005        2.6379657800057693E-005   1.0114219769910707E-005
 chl          59   4.3275770674085611E-006   1.3701573044150673E-005  0.31584527217887903     
 chl2c          60  0.37545242973217025        3.7607757740906807E-002  0.64452155000000000        2.6379657800057693E-005   1.1862266182403553E-005
 chl          60   5.1442888905791784E-006   1.3701573044150673E-005  0.37545242973217025     
 chl2c          61   3.7805373434125003E-002   3.7805373434125003E-002  0.70794139999999994        2.6379657800057693E-005   6.9086006618355083E-016
 chl          61   5.1799308556905713E-007   1.3701573044150673E-005   3.7805373434125003E-002
 chl2c          62   3.7956103087269030E-002   3.7956103087269030E-002  0.76481592499999995        2.6379657800057693E-005   6.4579003224660879E-016
 chl          62   5.2005831892152949E-007   1.3701573044150673E-005   3.7956103087269030E-002
 chl2c          63  0.39558105721407383        3.7855601011927406E-002  0.72597904999999996        2.6379657800057693E-005   1.1464664142989030E-005
 chl          63   5.4200827503009791E-006   1.3701573044150673E-005  0.39558105721407383     
 chl2c          64   2.5708982294816416E-002   2.5708982294816416E-002  0.48435739999999999        1.4421170912933994E-005   4.1560772366815576E-016
 chl          64   3.5225349880320352E-007   1.3701573044150673E-005   2.5708982294816416E-002
 chl2c          65  0.35093926628510419        3.7953597170552002E-002  0.76379975000000000        2.6379657800057693E-005   8.5634214903042092E-006
 chl          65   4.8084199910659989E-006   1.3701573044150673E-005  0.35093926628510419     
 chl2c          66   3.1840477731474713E-002   3.1840477731474713E-002  0.35213202499999996        1.7677448364118521E-005   8.3920712759058736E-019
 chl          66   4.3626463139845370E-007   1.3701573044150673E-005   3.1840477731474713E-002
 chl2c          67   3.7937587124568600E-002   3.7937587124568600E-002  0.75736760000000003        2.6379657800057693E-005   6.8070612658672743E-016
 chl          67   5.1980462110610677E-007   1.3701573044150673E-005   3.7937587124568600E-002
 chl2c          68  0.39438589397614265        3.7855407263856986E-002  0.72590779999999999        2.6379657800057693E-005   1.1390158494298130E-005
 chl          68   5.4037071338967817E-006   1.3701573044150673E-005  0.39438589397614265     
 chl2c          69  0.10025434471400360        2.1732330561541505E-002  0.45524217500000003        2.6379657800057693E-005   1.6957873425421349E-006
 chl          69   1.3736422270923813E-006   1.3701573044150673E-005  0.10025434471400360     
 chl2c          70   3.2658010878182209E-002   3.2658010878182209E-002  0.48694062500000002        1.7677448364118521E-005   1.3169841310266711E-017
 chl          70   4.4746612152408081E-007   1.3701573044150673E-005   3.2658010878182209E-002
 chl2c          71   4.3481058864416305E-002   4.3481058864416305E-002  0.23986107500000001        1.2689296684068284E-005   9.4903897392450079E-009
 chl          71   5.9575890406781513E-007   1.3701573044150673E-005   4.3481058864416305E-002
 chl2c          72   3.7549776402781669E-002   3.7549776402781669E-002  0.62790522500000001        2.6379657800057693E-005   6.1866868642192148E-016
 chl          72   5.1449100417423837E-007   1.3701573044150673E-005   3.7549776402781669E-002
 chl2c          73   3.1852614277819484E-002   3.1852614277819484E-002  0.35362212500000001        1.7677448364118521E-005   1.0536073497640656E-018
 chl          73   4.3643092117470028E-007   1.3701573044150673E-005   3.1852614277819484E-002
 chl2c          74  0.38640701547231271        3.7616827685877569E-002  0.64719590000000005        2.6379657800057693E-005   1.2648261768776392E-005
 chl          74   5.2943839472661521E-006   1.3701573044150673E-005  0.38640701547231271     
 chl2c          75   3.7826830779512356E-002   3.7826830779512356E-002  0.71554212500000003        2.6379657800057693E-005   6.1866868642192148E-016
 chl          75   5.1828708495421547E-007   1.3701573044150673E-005   3.7826830779512356E-002
 chl2c          76  0.31992155164850949        3.7257729557919804E-002  0.55513977500000000        2.6379657800057693E-005   9.9589611702766505E-006
 chl          76   4.3834285083100749E-006   1.3701573044150673E-005  0.31992155164850949     
 chl2c          77  0.32765367624696673        3.7138172437479272E-002  0.52973029999999999        2.6379657800057693E-005   1.1329035679715365E-005
 chl          77   4.4893707782823113E-006   1.3701573044150673E-005  0.32765367624696673     
 chl2c          78   4.7515248899399322E-002   4.7515248899399322E-002  0.45117492500000000        1.2689296684068284E-005   1.3588375835780128E-017
 chl          78   6.5103365350611965E-007   1.3701573044150673E-005   4.7515248899399322E-002
 prod   3.8137017498158013E-009   18.802957602690928        10.000000000000000     
 chl2c           1  0.37485746394415420        3.7477407714772232E-002  0.60826437499999997        2.1324169654541888E-005   1.0415664115650340E-005
 chl           1   3.5141985081463629E-006   9.3747593316426638E-006  0.37485746394415420     
 chl2c           2   3.2640259920490348E-002   3.2640259920490348E-002  0.48302390000000001        1.4372021663133126E-005   6.1480921947976844E-019
 chl           2   3.0599458127685891E-007   9.3747593316426638E-006   3.2640259920490348E-002
 chl2c           3   3.7922212503796585E-002   3.7922212503796585E-002  0.75128689999999998        2.1324169654541888E-005   6.3962460681354181E-016
 chl           3   3.5551161554650314E-007   9.3747593316426638E-006   3.7922212503796585E-002
 chl2c           4  0.44587170815421573        3.7976509103863923E-002  0.77318742499999993        2.1324169654541888E-005   1.1229747002295224E-005
 chl           4   4.1799399567341879E-006   9.3747593316426638E-006  0.44587170815421573     
 chl2c           5   2.5710500362372445E-002   2.5710500362372445E-002  0.48489679999999996        1.1753961346711537E-005   4.6654955441052195E-016
 chl           5   2.4102975319335315E-007   9.3747593316426638E-006   2.5710500362372445E-002
 chl2c           6   3.1261039902252048E-002   3.1261039902252048E-002  0.29222855000000003        1.4372021663133126E-005   1.1262445577567418E-017
 chl           6   2.9306472554049108E-007   9.3747593316426638E-006   3.1261039902252048E-002
 chl2c           7   4.3064391842467263E-002   4.3064391842467263E-002  0.22770740000000000        1.0387136861200086E-005   7.9874270303390322E-009
 chl           7   4.0371830928668616E-007   9.3747593316426638E-006   4.3064391842467263E-002
 chl2c           8   4.7969800906495587E-002   4.7969800906495587E-002  0.49578364999999996        1.0387136861200086E-005   1.1196469102908497E-008
 chl           8   4.4970533868521021E-007   9.3747593316426638E-006   4.7969800906495587E-002
 chl2c           9  0.23929054595545202        2.4803669054600401E-002  0.28700202499999999        1.1753961346711537E-005   8.4594452559529131E-006
 chl           9   2.2432912786697414E-006   9.3747593316426638E-006  0.23929054595545202     
 chl2c          10   2.5387016219684602E-002   2.5387016219684602E-002  0.39094662499999999        1.1753961346711537E-005   4.8142182260454834E-016
 chl          10   2.3799716720805189E-007   9.3747593316426638E-006   2.5387016219684602E-002
 chl2c          11   2.1820572217820047E-002   2.1820572217820047E-002  0.49737575000000001        2.1324169654541888E-005   4.8386637649178771E-016
 chl          11   2.0456261302079114E-007   9.3747593316426638E-006   2.1820572217820047E-002
 chl2c          12   4.5290941298723353E-002   4.5290941298723353E-002  0.30768942500000002        1.0387136861200086E-005   6.3119219050969754E-019
 chl          12   4.2459167457908684E-007   9.3747593316426638E-006   4.5290941298723353E-002
 chl2c          13   3.7935816987997487E-002   3.7935816987997487E-002  0.75666275000000005        2.1324169654541888E-005   7.4599962294236456E-016
 chl          13   3.5563915431171774E-007   9.3747593316426638E-006   3.7935816987997487E-002
 chl2c          14   4.6856526101924839E-002   4.6856526101924839E-002  0.39804095000000000        1.0387136861200086E-005   8.6133531240121396E-018
 chl          14   4.3926865532237791E-007   9.3747593316426638E-006   4.6856526101924839E-002
 chl2c          15   2.0954299823745293E-002   2.0954299823745293E-002  0.25607262500000000        2.1324169654541888E-005   4.9089138167856537E-016
 chl          15   1.9644151781069441E-007   9.3747593316426638E-006   2.0954299823745293E-002
 chl2c          16   3.8211941455349882E-002   3.7823443882273475E-002  0.71433214999999994        2.1324169654541888E-005   4.3044485113014672E-007
 chl          16   3.5822775473872444E-007   9.3747593316426638E-006   3.8211941455349882E-002
 chl2c          17   3.7542254757581245E-002   3.7542254757581245E-002  0.62580860000000005        2.1324169654541888E-005   6.3962460681354181E-016
 chl          17   3.5194960311954098E-007   9.3747593316426638E-006   3.7542254757581245E-002
 chl2c          18   2.5694475239060960E-002   2.5694475239060960E-002  0.47925950000000000        1.1753961346711537E-005   4.8681950647993311E-016
 chl          18   2.4087952151904811E-007   9.3747593316426638E-006   2.5694475239060960E-002
 chl2c          19  0.39589948022918425        3.7570220750293731E-002  0.63367130000000005        2.1324169654541888E-005   1.1249435268769756E-005
 chl          19   3.7114623466710254E-006   9.3747593316426638E-006  0.39589948022918425     
 chl2c          20   3.7020645196759419E-002   3.7020645196759419E-002  0.50678202500000002        2.1324169654541888E-005   7.6321106104110030E-016
 chl          20   3.4705963902175255E-007   9.3747593316426638E-006   3.7020645196759419E-002
 chl2c          21  0.45523248464197735        3.7838475073783531E-002  0.71973185000000006        2.1324169654541888E-005   1.3207525745072925E-005
 chl          21   4.2676949834642528E-006   9.3747593316426638E-006  0.45523248464197735     
 chl2c          22  0.39032221506071163        3.7613353106285476E-002  0.64616892500000001        2.1324169654541888E-005   1.0510699869344229E-005
 chl          22   3.6591768279878411E-006   9.3747593316426638E-006  0.39032221506071163     
 chl2c          23   3.2286562315070731E-002   3.2286562315070731E-002  0.41564179999999995        1.4372021663133126E-005   6.8994118166661702E-010
 chl          23   3.0267875134987170E-007   9.3747593316426638E-006   3.2286562315070731E-002
 chl2c          24   3.7348402796863071E-002   3.7348402796863071E-002  0.57597492500000003        2.1324169654541888E-005   7.2488171291397058E-016
 chl          24   3.5013228764184103E-007   9.3747593316426638E-006   3.7348402796863071E-002
 chl2c          25   4.5426679235459781E-002   4.5426679235459781E-002  0.31406487500000002        1.0387136861200086E-005   1.8509920162575038E-010
 chl          25   4.2586418506816462E-007   9.3747593316426638E-006   4.5426679235459781E-002
 chl2c          26   4.7955660680174553E-002   4.7955660680174553E-002  0.49427735000000000        1.0387136861200086E-005   6.0664994756825388E-019
 chl          26   4.4957277746655558E-007   9.3747593316426638E-006   4.7955660680174553E-002
 chl2c          27   4.5333133499525620E-002   4.5333133499525620E-002  0.30964730000000001        1.0387136861200086E-005   8.5393990341226591E-018
 chl          27   4.2498721630728043E-007   9.3747593316426638E-006   4.5333133499525620E-002
 chl2c          28   3.1209236063453518E-002   3.1209236063453518E-002  0.28776342500000002        1.4372021663133126E-005   8.4867553234861212E-018
 chl          28   2.9257907701929962E-007   9.3747593316426638E-006   3.1209236063453518E-002
 chl2c          29  0.21215230405622618        3.7743217595736761E-002  0.68676297499999994        2.1324169654541888E-005   3.2730999010366774E-006
 chl          29   1.9888767921805982E-006   9.3747593316426638E-006  0.21215230405622618     
 chl2c          30   2.5380056985171612E-002   2.5380056985171612E-002  0.38930277499999999        1.1753961346711537E-005   4.9284500498793923E-016
 chl          30   2.3793192605936013E-007   9.3747593316426638E-006   2.5380056985171612E-002
 chl2c          31   3.7576959810037038E-002   3.7576959810037038E-002  0.63559385000000002        2.1324169654541888E-005   7.6896694105555053E-016
 chl          31   3.5227495463390605E-007   9.3747593316426638E-006   3.7576959810037038E-002
 chl2c          32  0.17055413295904179        2.0893126428578448E-002  0.24722667500000001        2.1324169654541888E-005   5.8635393905450113E-006
 chl          32   1.5989039495080007E-006   9.3747593316426638E-006  0.17055413295904179     
 chl2c          33  0.40259983749161798        3.7458922634011876E-002  0.60343137499999999        2.1324169654541888E-005   1.2897683125760132E-005
 chl          33   3.7742765834423658E-006   9.3747593316426638E-006  0.40259983749161798     
 chl2c          34   2.5350269098008315E-002   2.5350269098008315E-002  0.38241020000000003        1.1753961346711537E-005   4.6456768580709582E-016
 chl          34   2.3765267178620610E-007   9.3747593316426638E-006   2.5350269098008315E-002
 chl2c          35   2.5740370148566064E-002   2.5740370148566064E-002  0.49574644999999995        1.1753961346711537E-005   4.6962263499705000E-016
 chl          35   2.4130977525020597E-007   9.3747593316426638E-006   2.5740370148566064E-002
 chl2c          36   3.7770393924465726E-002   3.7770393924465726E-002  0.69587337500000002        2.1324169654541888E-005   6.3962460681354181E-016
 chl          36   3.5408835290320443E-007   9.3747593316426638E-006   3.7770393924465726E-002
 chl2c          37   2.1353674699533250E-002   2.1353674699533250E-002  0.33194060000000003        2.1324169654541888E-005   4.6240515496464162E-016
 chl          37   2.0018556115431120E-007   9.3747593316426638E-006   2.1353674699533250E-002
 chl2c          38   2.1543295686358745E-002   2.1543295686358745E-002  0.38455722500000000        2.1324169654541888E-005   4.9413737996412039E-016
 chl          38   2.0196321227002878E-007   9.3747593316426638E-006   2.1543295686358745E-002
 chl2c          39   2.5670077108751441E-002   2.5670077108751441E-002  0.47091117500000002        1.1753961346711537E-005   4.7946953811071221E-016
 chl          39   2.4065079491925431E-007   9.3747593316426638E-006   2.5670077108751441E-002
 chl2c          40   3.7687445774703773E-002   3.7687445774703773E-002  0.66875547499999999        2.1324169654541888E-005   4.1094826362203581E-007
 chl          40   3.5331073396218108E-007   9.3747593316426638E-006   3.7687445774703773E-002
 chl2c          41  0.19184012608397158        2.5582381488167241E-002  0.44304987499999998        1.1753961346711537E-005   1.9884278746494786E-006
 chl          41   1.7984550121892177E-006   9.3747593316426638E-006  0.19184012608397158     
 chl2c          42  0.12727490470744726        3.7949995630725070E-002  0.76234377499999995        2.1324169654541888E-005   1.6289769806938107E-006
 chl          42   1.1931716005900719E-006   9.3747593316426638E-006  0.12727490470744726     
 chl2c          43  0.21618967602458591        2.1185090152268007E-002  0.29539925000000000        2.1324169654541888E-005   8.5962452032150241E-006
 chl          43   2.0267261827162912E-006   9.3747593316426638E-006  0.21618967602458591     
 chl2c          44   3.7536352708156646E-002   3.7536352708156646E-002  0.62417262500000004        2.1324169654541888E-005   7.2695747482138241E-016
 chl          44   3.5189427282662188E-007   9.3747593316426638E-006   3.7536352708156646E-002
 chl2c          45   4.6544927192009838E-002   4.6544927192009838E-002  0.37662252499999999        1.0387136861200086E-005   8.0778373365507609E-019
 chl          45   4.3634749053392263E-007   9.3747593316426638E-006   4.6544927192009838E-002
 chl2c          46   3.7083195475449568E-002   3.7083195475449568E-002  0.51876034999999998        2.1324169654541888E-005   1.0500650147650706E-007
 chl          46   3.4764603283059984E-007   9.3747593316426638E-006   3.7083195475449568E-002
 chl2c          47   3.7519784612651236E-002   3.7519784612651236E-002  0.61962282499999999        2.1324169654541888E-005   7.7129762916848643E-016
 chl          47   3.5173895091867500E-007   9.3747593316426638E-006   3.7519784612651236E-002
 chl2c          48   3.7823212136301673E-002   3.7823212136301673E-002  0.71424949999999998        2.1324169654541888E-005   7.6459623795181617E-016
 chl          48   3.5458351092749416E-007   9.3747593316426638E-006   3.7823212136301673E-002
 chl2c          49   3.7152990741888416E-002   3.7152990741888416E-002  0.53276120000000005        2.1324169654541888E-005   7.5187630935596969E-016
 chl          49   3.4830034665595190E-007   9.3747593316426638E-006   3.7152990741888416E-002
 chl2c          50  0.25042314229488832        2.1533072915600981E-002  0.38132569999999999        2.1324169654541888E-005   7.7779390940899568E-006
 chl          50   2.3476566900882831E-006   9.3747593316426638E-006  0.25042314229488832     
 chl2c          51   2.0700971146093840E-002   2.0700971146093840E-002  0.22275920000000002        2.1324169654541888E-005   4.9785860696898037E-016
 chl          51   1.9406662242590875E-007   9.3747593316426638E-006   2.0700971146093840E-002
 chl2c          52   3.7581825176985564E-002   3.7581825176985564E-002  0.63698869999999996        2.1324169654541888E-005   6.3962460681354181E-016
 chl          52   3.5232056627810861E-007   9.3747593316426638E-006   3.7581825176985564E-002
 chl2c          53  0.16686547235479979        3.7925801262726190E-002  0.75269794999999995        2.1324169654541888E-005   2.2858930341610484E-006
 chl          53   1.5643236440871203E-006   9.3747593316426638E-006  0.16686547235479979     
 chl2c          54   3.7082433371327092E-002   3.7082433371327092E-002  0.51861124999999997        2.1324169654541888E-005   7.2664769925532182E-016
 chl          54   3.4763888828786600E-007   9.3747593316426638E-006   3.7082433371327092E-002
 chl2c          55  0.38610766328749740        3.7357235588660491E-002  0.57808280000000001        2.1324169654541888E-005   1.2396401019080793E-005
 chl          55   3.6196664194232099E-006   9.3747593316426638E-006  0.38610766328749740     
 chl2c          56   3.7507394187257688E-002   3.7507394187257688E-002  0.61626080000000005        2.1324169654541888E-005   6.3962460681354181E-016
 chl          56   3.5162279366259384E-007   9.3747593316426638E-006   3.7507394187257688E-002
 chl2c          57   3.7727617852646313E-002   3.7727617852646313E-002  0.68163462500000005        2.1324169654541888E-005   7.8036343154852784E-016
 chl          57   3.5368733752474439E-007   9.3747593316426638E-006   3.7727617852646313E-002
 chl2c          58  0.41869431365970461        3.7765358178394853E-002  0.69416802499999997        2.1324169654541888E-005   1.1249251883123419E-005
 chl          58   3.9251584240870361E-006   9.3747593316426638E-006  0.41869431365970461     
 chl2c          59  0.36761355023015851        3.7173699120809672E-002  0.53705127500000005        2.1324169654541888E-005   1.2423366156401633E-005
 chl          59   3.4462885604584675E-006   9.3747593316426638E-006  0.36761355023015851     
 chl2c          60  0.41794579896763262        3.7607757740906807E-002  0.64452155000000000        2.1324169654541888E-005   1.2676113299990661E-005
 chl          60   3.9181412789926623E-006   9.3747593316426638E-006  0.41794579896763262     
 chl2c          61   3.7805373434125003E-002   3.7805373434125003E-002  0.70794139999999994        2.1324169654541888E-005   7.5924674671939961E-016
 chl          61   3.5441627738779901E-007   9.3747593316426638E-006   3.7805373434125003E-002
 chl2c          62   3.7956103087269030E-002   3.7956103087269030E-002  0.76481592499999995        2.1324169654541888E-005   7.2148336000153180E-016
 chl          62   3.5582933161016626E-007   9.3747593316426638E-006   3.7956103087269030E-002
 chl2c          63  0.42975659173545550        3.7855601011927406E-002  0.72597904999999996        2.1324169654541888E-005   1.1229768066613435E-005
 chl          63   4.0288646187069081E-006   9.3747593316426638E-006  0.42975659173545550     
 chl2c          64   2.5708982294816416E-002   2.5708982294816416E-002  0.48435739999999999        1.1753961346711537E-005   4.5080204437378059E-016
 chl          64   2.4101552167536624E-007   9.3747593316426638E-006   2.5708982294816416E-002
 chl2c          65  0.42226707471438163        3.7953597170552002E-002  0.76379975000000000        2.1324169654541888E-005   1.0068774277745559E-005
 chl          65   3.9586521991240995E-006   9.3747593316426638E-006  0.42226707471438163     
 chl2c          66   3.1840477731474713E-002   3.1840477731474713E-002  0.35213202499999996        1.4372021663133126E-005   6.6442285762124684E-019
 chl          66   2.9849681573710302E-007   9.3747593316426638E-006   3.1840477731474713E-002
 chl2c          67   3.7937587124568600E-002   3.7937587124568600E-002  0.75736760000000003        2.1324169654541888E-005   7.5084659718657007E-016
 chl          67   3.5565574891605605E-007   9.3747593316426638E-006   3.7937587124568600E-002
 chl2c          68  0.42999108625391830        3.7855407263856986E-002  0.72590779999999999        2.1324169654541888E-005   1.1246400720649460E-005
 chl          68   4.0310629483820865E-006   9.3747593316426638E-006  0.42999108625391830     
 chl2c          69   2.1732330561541505E-002   2.1732330561541505E-002  0.45524217500000003        2.1324169654541888E-005   4.6700880705267454E-016
 chl          69   2.0373536873015429E-007   9.3747593316426638E-006   2.1732330561541505E-002
 chl2c          70   3.2658010878182209E-002   3.2658010878182209E-002  0.48694062500000002        1.4372021663133126E-005   1.0472908907516614E-017
 chl          70   3.0616099223312627E-007   9.3747593316426638E-006   3.2658010878182209E-002
 chl2c          71   4.3481058864416305E-002   4.3481058864416305E-002  0.23986107500000001        1.0387136861200086E-005   1.0758923713570237E-008
 chl          71   4.0762446233889071E-007   9.3747593316426638E-006   4.3481058864416305E-002
 chl2c          72   3.7549776402781669E-002   3.7549776402781669E-002  0.62790522500000001        2.1324169654541888E-005   6.3962460681354181E-016
 chl          72   3.5202011673307297E-007   9.3747593316426638E-006   3.7549776402781669E-002
 chl2c          73   3.1852614277819484E-002   3.1852614277819484E-002  0.35362212500000001        1.4372021663133126E-005   8.3423697372091750E-019
 chl          73   2.9861059293820257E-007   9.3747593316426638E-006   3.1852614277819484E-002
 chl2c          74  0.42628708123317433        3.7616827685877569E-002  0.64719590000000005        2.1324169654541888E-005   1.3315792188767508E-005
 chl          74   3.9963387927494152E-006   9.3747593316426638E-006  0.42628708123317433     
 chl2c          75   3.7826830779512356E-002   3.7826830779512356E-002  0.71554212500000003        2.1324169654541888E-005   6.3962460681354181E-016
 chl          75   3.5461743483670141E-007   9.3747593316426638E-006   3.7826830779512356E-002
 chl2c          76  0.31658630505212543        3.7257729557919804E-002  0.55513977500000000        2.1324169654541888E-005   7.8550845591231518E-006
 chl          76   2.9679204175576838E-006   9.3747593316426638E-006  0.31658630505212543     
 chl2c          77  0.36476976057167015        3.7138172437479272E-002  0.52973029999999999        2.1324169654541888E-005   1.2489231284978460E-005
 chl          77   3.4196287168203250E-006   9.3747593316426638E-006  0.36476976057167015     
 chl2c          78   4.7515248899399322E-002   4.7515248899399322E-002  0.45117492500000000        1.0387136861200086E-005   1.0807205717358169E-017
 chl          78   4.4544402301496758E-007   9.3747593316426638E-006   4.7515248899399322E-002
 prod   3.0184515670453773E-009   15.162486162077057        10.000000000000000     
 chl2c           1  0.41086542940511495        3.7477407714772232E-002  0.60826437499999997        1.7261366831069657E-005   1.0926783547162244E-005
 chl           1   2.0740677824125309E-006   5.0480464745246111E-006  0.41086542940511495     
 chl2c           2   3.2640259920490348E-002   3.2640259920490348E-002  0.48302390000000001        1.1693718594990845E-005   4.5296665055742320E-019
 chl           2   1.6476954901919826E-007   5.0480464745246111E-006   3.2640259920490348E-002
 chl2c           3   3.7922212503796585E-002   3.7922212503796585E-002  0.75128689999999998        1.7261366831069657E-005   6.6596367803232966E-016
 chl           3   1.9143309113596348E-007   5.0480464745246111E-006   3.7922212503796585E-002
 chl2c           4  0.48155860806017153        3.7976509103863923E-002  0.77318742499999993        1.7261366831069657E-005   1.1019164917932281E-005
 chl           4   2.4309302336951279E-006   5.0480464745246111E-006  0.48155860806017153     
 chl2c           5   2.5710500362372445E-002   2.5710500362372445E-002  0.48489679999999996        9.5931777025563233E-006   4.8967995799580224E-016
 chl           5   1.2978780071253797E-007   5.0480464745246111E-006   2.5710500362372445E-002
 chl2c           6   3.1261039902252048E-002   3.1261039902252048E-002  0.29222855000000003        1.1693718594990845E-005   3.2325994357803790E-009
 chl           6   1.5780718226853666E-007   5.0480464745246111E-006   3.1261039902252048E-002
 chl2c           7   4.3064391842467263E-002   4.3064391842467263E-002  0.22770740000000000        8.5066862932352113E-006   3.5311350387358067E-009
 chl           7   2.1739105141791329E-007   5.0480464745246111E-006   4.3064391842467263E-002
 chl2c           8   4.7969800906495587E-002   4.7969800906495587E-002  0.49578364999999996        8.5066862932352113E-006   7.8812500204950506E-009
 chl           8   2.4215378434968257E-007   5.0480464745246111E-006   4.7969800906495587E-002
 chl2c           9  0.24604791841771312        2.4803669054600401E-002  0.28700202499999999        9.5931777025563233E-006   8.2706509732710906E-006
 chl           9   1.2420613271326559E-006   5.0480464745246111E-006  0.24604791841771312     
 chl2c          10   2.5387016219684602E-002   2.5387016219684602E-002  0.39094662499999999        9.5931777025563233E-006   5.0092298530100074E-016
 chl          10   1.2815483772647797E-007   5.0480464745246111E-006   2.5387016219684602E-002
 chl2c          11   2.1820572217820047E-002   2.1820572217820047E-002  0.49737575000000001        1.7261366831069657E-005   5.0275257651664471E-016
 chl          11   1.1015126265627617E-007   5.0480464745246111E-006   2.1820572217820047E-002
 chl2c          12   4.5290941298723353E-002   4.5290941298723353E-002  0.30768942500000002        8.5066862932352113E-006   4.6504060618491229E-019
 chl          12   2.2863077655092154E-007   5.0480464745246111E-006   4.5290941298723353E-002
 chl2c          13   3.7935816987997487E-002   3.7935816987997487E-002  0.75666275000000005        1.7261366831069657E-005   8.0191621748096776E-016
 chl          13   1.9150176720447157E-007   5.0480464745246111E-006   3.7935816987997487E-002
 chl2c          14   4.6856526101924839E-002   4.6856526101924839E-002  0.39804095000000000        8.5066862932352113E-006   6.3706954168332384E-018
 chl          14   2.3653392139729209E-007   5.0480464745246111E-006   4.6856526101924839E-002
 chl2c          15   2.0954299823745293E-002   2.0954299823745293E-002  0.25607262500000000        1.7261366831069657E-005   5.0798189281529328E-016
 chl          15   1.0577827935138911E-007   5.0480464745246111E-006   2.0954299823745293E-002
 chl2c          16  0.21311397918669778        3.7823443882273475E-002  0.71433214999999994        1.7261366831069657E-005   2.6213832148572701E-006
 chl          16   1.0758092713053211E-006   5.0480464745246111E-006  0.21311397918669778     
 chl2c          17   3.7542254757581245E-002   3.7542254757581245E-002  0.62580860000000005        1.7261366831069657E-005   6.6596367803232966E-016
 chl          17   1.8951504677471282E-007   5.0480464745246111E-006   3.7542254757581245E-002
 chl2c          18   2.5694475239060960E-002   2.5694475239060960E-002  0.47925950000000000        9.5931777025563233E-006   5.0495596642093074E-016
 chl          18   1.2970690514530160E-007   5.0480464745246111E-006   2.5694475239060960E-002
 chl2c          19  0.42534454318168974        3.7570220750293731E-002  0.63367130000000005        1.7261366831069657E-005   1.1166190600050540E-005
 chl          19   2.1471590216666101E-006   5.0480464745246111E-006  0.42534454318168974     
 chl2c          20   3.7020645196759419E-002   3.7020645196759419E-002  0.50678202500000002        1.7261366831069657E-005   8.1560018706584808E-016
 chl          20   1.8688193747012788E-007   5.0480464745246111E-006   3.7020645196759419E-002
 chl2c          21  0.49332120184229972        3.7838475073783531E-002  0.71973185000000006        1.7261366831069657E-005   1.3534706454458295E-005
 chl          21   2.4903083537682650E-006   5.0480464745246111E-006  0.49332120184229972     
 chl2c          22  0.40426893918666734        3.7613353106285476E-002  0.64616892500000001        1.7261366831069657E-005   9.3202119106674725E-006
 chl          22   2.0407683932210604E-006   5.0480464745246111E-006  0.40426893918666734     
 chl2c          23   3.2286562315070731E-002   3.2286562315070731E-002  0.41564179999999995        1.1693718594990845E-005   3.5368725038064072E-009
 chl          23   1.6298406706911196E-007   5.0480464745246111E-006   3.2286562315070731E-002
 chl2c          24   3.7348402796863071E-002   3.7348402796863071E-002  0.57597492500000003        1.7261366831069657E-005   7.8490423350591255E-016
 chl          24   1.8853647306782975E-007   5.0480464745246111E-006   3.7348402796863071E-002
 chl2c          25   4.5426679235459781E-002   4.5426679235459781E-002  0.31406487500000002        8.5066862932352113E-006   2.3486612289600590E-009
 chl          25   2.2931598796392312E-007   5.0480464745246111E-006   4.5426679235459781E-002
 chl2c          26   4.7955660680174553E-002   4.7955660680174553E-002  0.49427735000000000        8.5066862932352113E-006   4.4695348415656533E-019
 chl          26   2.4208240383005368E-007   5.0480464745246111E-006   4.7955660680174553E-002
 chl2c          27   4.5333133499525620E-002   4.5333133499525620E-002  0.30964730000000001        8.5066862932352113E-006   6.3158047712195521E-018
 chl          27   2.2884376474143385E-007   5.0480464745246111E-006   4.5333133499525620E-002
 chl2c          28   3.1209236063453518E-002   3.1209236063453518E-002  0.28776342500000002        1.1693718594990845E-005   6.2767332720844871E-018
 chl          28   1.5754567408272289E-007   5.0480464745246111E-006   3.1209236063453518E-002
 chl2c          29   5.2503187908970093E-002   3.7743217595736761E-002  0.68676297499999994        1.7261366831069657E-005   4.9064859115974119E-007
 chl          29   2.6503853262517968E-007   5.0480464745246111E-006   5.2503187908970093E-002
 chl2c          30   2.5380056985171612E-002   2.5380056985171612E-002  0.38930277499999999        9.5931777025563233E-006   5.0942870879227339E-016
 chl          30   1.2811970718722928E-007   5.0480464745246111E-006   2.5380056985171612E-002
 chl2c          31   3.7576959810037038E-002   3.7576959810037038E-002  0.63559385000000002        1.7261366831069657E-005   8.2014067796398247E-016
 chl          31   1.8969023949241047E-007   5.0480464745246111E-006   3.7576959810037038E-002
 chl2c          32  0.14739436730778352        2.0893126428578448E-002  0.24722667500000001        1.7261366831069657E-005   3.1502882357515422E-006
 chl          32   7.4405361625284218E-007   5.0480464745246111E-006  0.14739436730778352     
 chl2c          33  0.43317240082750330        3.7458922634011876E-002  0.60343137499999999        1.7261366831069657E-005   1.3250242892411252E-005
 chl          33   2.1866744108586397E-006   5.0480464745246111E-006  0.43317240082750330     
 chl2c          34   2.5350269098008315E-002   2.5350269098008315E-002  0.38241020000000003        9.5931777025563233E-006   4.8816698881104753E-016
 chl          34   1.2796933654845108E-007   5.0480464745246111E-006   2.5350269098008315E-002
 chl2c          35   2.5740370148566064E-002   2.5740370148566064E-002  0.49574644999999995        9.5931777025563233E-006   4.9201905970916397E-016
 chl          35   1.2993858478142745E-007   5.0480464745246111E-006   2.5740370148566064E-002
 chl2c          36   3.7770393924465726E-002   3.7770393924465726E-002  0.69587337500000002        1.7261366831069657E-005   6.6596367803232966E-016
 chl          36   1.9066670389180500E-007   5.0480464745246111E-006   3.7770393924465726E-002
 chl2c          37   2.1353674699533250E-002   2.1353674699533250E-002  0.33194060000000003        1.7261366831069657E-005   4.8651209881044391E-016
 chl          37   1.0779434228512421E-007   5.0480464745246111E-006   2.1353674699533250E-002
 chl2c          38   2.1543295686358745E-002   2.1543295686358745E-002  0.38455722500000000        1.7261366831069657E-005   5.1038405411863823E-016
 chl          38   1.0875155783916453E-007   5.0480464745246111E-006   2.1543295686358745E-002
 chl2c          39   2.5670077108751441E-002   2.5670077108751441E-002  0.47091117500000002        9.5931777025563233E-006   4.9945812380860692E-016
 chl          39   1.2958374224960763E-007   5.0480464745246111E-006   2.5670077108751441E-002
 chl2c          40  0.20741419170522901        3.7687445774703773E-002  0.66875547499999999        1.7261366831069657E-005   2.5949481586031255E-006
 chl          40   1.0470364792039532E-006   5.0480464745246111E-006  0.20741419170522901     
 chl2c          41  0.30154328508852324        2.5582381488167241E-002  0.44304987499999998        9.5931777025563233E-006   4.5285389619695801E-006
 chl          41   1.5222045172076895E-006   5.0480464745246111E-006  0.30154328508852324     
 chl2c          42  0.31555973571734303        3.7949995630725070E-002  0.76234377499999995        1.7261366831069657E-005   4.6470781736377407E-006
 chl          42   1.5929602113898514E-006   5.0480464745246111E-006  0.31555973571734303     
 chl2c          43  0.22760340644142726        2.1185090152268007E-002  0.29539925000000000        1.7261366831069657E-005   8.5591426303087077E-006
 chl          43   1.1489525734764390E-006   5.0480464745246111E-006  0.22760340644142726     
 chl2c          44   3.7536352708156646E-002   3.7536352708156646E-002  0.62417262500000004        1.7261366831069657E-005   7.8658739572004768E-016
 chl          44   1.8948525295492249E-007   5.0480464745246111E-006   3.7536352708156646E-002
 chl2c          45   4.6544927192009838E-002   4.6544927192009838E-002  0.37662252499999999        8.5066862932352113E-006   5.9519741406756543E-019
 chl          45   2.3496095561862996E-007   5.0480464745246111E-006   4.6544927192009838E-002
 chl2c          46   3.7083195475449568E-002   3.7083195475449568E-002  0.51876034999999998        1.7261366831069657E-005   8.2001954610142361E-016
 chl          46   1.8719769418395021E-007   5.0480464745246111E-006   3.7083195475449568E-002
 chl2c          47   3.7519784612651236E-002   3.7519784612651236E-002  0.61962282499999999        1.7261366831069657E-005   8.2197417874315225E-016
 chl          47   1.8940161643881683E-007   5.0480464745246111E-006   3.7519784612651236E-002
 chl2c          48  0.14554222619896562        3.7823212136301673E-002  0.71424949999999998        1.7261366831069657E-005   1.5775944221535398E-006
 chl          48   7.3470392185815191E-007   5.0480464745246111E-006  0.14554222619896562     
 chl2c          49   3.7152990741888416E-002   3.7152990741888416E-002  0.53276120000000005        1.7261366831069657E-005   8.0660659253712067E-016
 chl          49   1.8755002393263533E-007   5.0480464745246111E-006   3.7152990741888416E-002
 chl2c          50  0.25278084429038583        2.1533072915600981E-002  0.38132569999999999        1.7261366831069657E-005   6.4718839556617802E-006
 chl          50   1.2760494498474368E-006   5.0480464745246111E-006  0.25278084429038583     
 chl2c          51   2.0700971146093840E-002   2.0700971146093840E-002  0.22275920000000002        1.7261366831069657E-005   5.1312705666319948E-016
 chl          51   1.0449946441327471E-007   5.0480464745246111E-006   2.0700971146093840E-002
 chl2c          52   7.0709103018210040E-002   3.7581825176985564E-002  0.63698869999999996        1.7261366831069657E-005   6.8646962976314964E-007
 chl          52   3.5694283820787273E-007   5.0480464745246111E-006   7.0709103018210040E-002
 chl2c          53  0.32154905731889316        3.7925801262726190E-002  0.75269794999999995        1.7261366831069657E-005   4.8449119119867643E-006
 chl          53   1.6231945851853506E-006   5.0480464745246111E-006  0.32154905731889316     
 chl2c          54   3.7082433371327092E-002   3.7082433371327092E-002  0.51861124999999997        1.7261366831069657E-005   7.8633636273236977E-016
 chl          54   1.8719384704692153E-007   5.0480464745246111E-006   3.7082433371327092E-002
 chl2c          55  0.39623605052383049        3.7357235588660491E-002  0.57808280000000001        1.7261366831069657E-005   1.0871355006629850E-005
 chl          55   2.0002179979263782E-006   5.0480464745246111E-006  0.39623605052383049     
 chl2c          56   3.7507394187257688E-002   3.7507394187257688E-002  0.61626080000000005        1.7261366831069657E-005   6.6596367803232966E-016
 chl          56   1.8933906899559107E-007   5.0480464745246111E-006   3.7507394187257688E-002
 chl2c          57   3.7727617852646313E-002   3.7727617852646313E-002  0.68163462500000005        1.7261366831069657E-005   8.2907853749272258E-016
 chl          57   1.9045076829326300E-007   5.0480464745246111E-006   3.7727617852646313E-002
 chl2c          58  0.45190388444254093        3.7765358178394853E-002  0.69416802499999997        1.7261366831069657E-005   1.1175494020432783E-005
 chl          58   2.2812318106841458E-006   5.0480464745246111E-006  0.45190388444254093     
 chl2c          59  0.39979991241496071        3.7173699120809672E-002  0.53705127500000005        1.7261366831069657E-005   1.3501653813833350E-005
 chl          59   2.0182085383815907E-006   5.0480464745246111E-006  0.39979991241496071     
 chl2c          60  0.45261421393540907        3.7607757740906807E-002  0.64452155000000000        1.7261366831069657E-005   1.3119559118275180E-005
 chl          60   2.2848175869763700E-006   5.0480464745246111E-006  0.45261421393540907     
 chl2c          61   3.7805373434125003E-002   3.7805373434125003E-002  0.70794139999999994        1.7261366831069657E-005   8.1246259642785877E-016
 chl          61   1.9084328208222112E-007   5.0480464745246111E-006   3.7805373434125003E-002
 chl2c          62  0.16132995883755072        3.7956103087269030E-002  0.76481592499999995        1.7261366831069657E-005   1.7646149588467319E-006
 chl          62   8.1440112994509856E-007   5.0480464745246111E-006  0.16132995883755072     
 chl2c          63  0.46281594678771942        3.7855601011927406E-002  0.72597904999999996        1.7261366831069657E-005   1.1019264056563357E-005
 chl          63   2.3363164085355169E-006   5.0480464745246111E-006  0.46281594678771942     
 chl2c          64   2.5708982294816416E-002   2.5708982294816416E-002  0.48435739999999999        9.5931777025563233E-006   4.7756069676998239E-016
 chl          64   1.2978013743696366E-007   5.0480464745246111E-006   2.5708982294816416E-002
 chl2c          65  0.47386061820834002        3.7953597170552002E-002  0.76379975000000000        1.7261366831069657E-005   1.0773789374011750E-005
 chl          65   2.3920704231626637E-006   5.0480464745246111E-006  0.47386061820834002     
 chl2c          66   3.1840477731474713E-002   3.1840477731474713E-002  0.35213202499999996        1.1693718594990845E-005   4.8953159246451043E-019
 chl          66   1.6073221135955030E-007   5.0480464745246111E-006   3.1840477731474713E-002
 chl2c          67   3.7937587124568600E-002   3.7937587124568600E-002  0.75736760000000003        1.7261366831069657E-005   8.0578610852444942E-016
 chl          67   1.9151070293614881E-007   5.0480464745246111E-006   3.7937587124568600E-002
 chl2c          68  0.46514927725543614        3.7855407263856986E-002  0.72590779999999999        1.7261366831069657E-005   1.1175848038623212E-005
 chl          68   2.3480951691769754E-006   5.0480464745246111E-006  0.46514927725543614     
 chl2c          69   2.1732330561541505E-002   2.1732330561541505E-002  0.45524217500000003        1.7261366831069657E-005   4.9003005479324359E-016
 chl          69   1.0970581467439306E-007   5.0480464745246111E-006   2.1732330561541505E-002
 chl2c          70   3.2658010878182209E-002   3.2658010878182209E-002  0.48694062500000002        1.1693718594990845E-005   7.7520014779296811E-018
 chl          70   1.6485915667859411E-007   5.0480464745246111E-006   3.2658010878182209E-002
 chl2c          71   4.3481058864416305E-002   4.3481058864416305E-002  0.23986107500000001        8.5066862932352113E-006   8.7325717659237391E-009
 chl          71   2.1949440590911382E-007   5.0480464745246111E-006   4.3481058864416305E-002
 chl2c          72   3.7549776402781669E-002   3.7549776402781669E-002  0.62790522500000001        1.7261366831069657E-005   6.6596367803232966E-016
 chl          72   1.8955301638924945E-007   5.0480464745246111E-006   3.7549776402781669E-002
 chl2c          73   3.1852614277819484E-002   3.1852614277819484E-002  0.35362212500000001        1.1693718594990845E-005   6.1469666945000388E-019
 chl          73   1.6079347720953894E-007   5.0480464745246111E-006   3.1852614277819484E-002
 chl2c          74  0.45888343444626750        3.7616827685877569E-002  0.64719590000000005        1.7261366831069657E-005   1.3611445678130694E-005
 chl          74   2.3164649034742262E-006   5.0480464745246111E-006  0.45888343444626750     
 chl2c          75   3.7826830779512356E-002   3.7826830779512356E-002  0.71554212500000003        1.7261366831069657E-005   6.6596367803232966E-016
 chl          75   1.9095159975895640E-007   5.0480464745246111E-006   3.7826830779512356E-002
 chl2c          76  0.29346206393375146        3.7257729557919804E-002  0.55513977500000000        1.7261366831069657E-005   5.3731970397311423E-006
 chl          76   1.4814101372474901E-006   5.0480464745246111E-006  0.29346206393375146     
 chl2c          77  0.39225818042876004        3.7138172437479272E-002  0.52973029999999999        1.7261366831069657E-005   1.3045399455932268E-005
 chl          77   1.9801375248168409E-006   5.0480464745246111E-006  0.39225818042876004     
 chl2c          78   4.7515248899399322E-002   4.7515248899399322E-002  0.45117492500000000        8.5066862932352113E-006   8.0005457500020279E-018
 chl          78   2.3985918469277214E-007   5.0480464745246111E-006   4.7515248899399322E-002
 prod   2.2232198725233051E-009   12.247780335328491        10.000000000000000     
 chl2c           1  0.44580577657458959        3.7477407714772232E-002  0.60826437499999997        1.3509901371166780E-005   1.1275026040697122E-005
 chl           1   3.2165575497572207E-007   7.2151544882887925E-007  0.44580577657458959     
 chl2c           2   3.2640259920490348E-002   3.2640259920490348E-002  0.48302390000000001        9.2015652654600624E-006   2.9103472190223645E-019
 chl           2   2.3550451786423873E-008   7.2151544882887925E-007   3.2640259920490348E-002
 chl2c           3   3.7922212503796585E-002   3.7922212503796585E-002  0.75128689999999998        1.3509901371166780E-005   7.0074259536802378E-016
 chl           3   2.7361462175260928E-008   7.2151544882887925E-007   3.7922212503796585E-002
 chl2c           4  0.52249160082001633        3.7976509103863923E-002  0.77318742499999993        1.3509901371166780E-005   1.0885269311807128E-005
 chl           4   3.7698576187497372E-007   7.2151544882887925E-007  0.52249160082001633     
 chl2c           5   2.5710500362372445E-002   2.5710500362372445E-002  0.48489679999999996        7.5799136373855172E-006   5.0815586769190275E-016
 chl           5   1.8550523208572217E-008   7.2151544882887925E-007   2.5710500362372445E-002
 chl2c           6   3.1261039902252048E-002   3.1261039902252048E-002  0.29222855000000003        9.2015652654600624E-006   1.9548499308018324E-008
 chl           6   2.2555323235930889E-008   7.2151544882887925E-007   3.1261039902252048E-002
 chl2c           7   4.3064391842467263E-002   4.3064391842467263E-002  0.22770740000000000        6.7423954627857153E-006   1.0515029573812246E-009
 chl           7   3.1071624008760492E-008   7.2151544882887925E-007   4.3064391842467263E-002
 chl2c           8   4.7969800906495587E-002   4.7969800906495587E-002  0.49578364999999996        6.7423954627857153E-006   4.8840070207048401E-009
 chl           8   3.4610952431282140E-008   7.2151544882887925E-007   4.7969800906495587E-002
 chl2c           9  0.25207173910047692        2.4803669054600401E-002  0.28700202499999999        7.5799136373855172E-006   7.8494863795865210E-006
 chl           9   1.8187365397415675E-007   7.2151544882887925E-007  0.25207173910047692     
 chl2c          10   2.5387016219684602E-002   2.5387016219684602E-002  0.39094662499999999        7.5799136373855172E-006   5.1625605383518273E-016
 chl          10   1.8317124402171774E-008   7.2151544882887925E-007   2.5387016219684602E-002
 chl2c          11   2.1820572217820047E-002   2.1820572217820047E-002  0.49737575000000001        1.3509901371166780E-005   5.1756362458564993E-016
 chl          11   1.5743879957443404E-008   7.2151544882887925E-007   2.1820572217820047E-002
 chl2c          12   4.5290941298723353E-002   4.5290941298723353E-002  0.30768942500000002        6.7423954627857153E-006   2.9879467761228808E-019
 chl          12   3.2678113839030805E-008   7.2151544882887925E-007   4.5290941298723353E-002
 chl2c          13  0.16039902444067072        3.7935816987997487E-002  0.75666275000000005        1.3509901371166780E-005   1.3749530556409988E-006
 chl          13   1.1573037411102491E-007   7.2151544882887925E-007  0.16039902444067072     
 chl2c          14   4.6856526101924839E-002   4.6856526101924839E-002  0.39804095000000000        6.7423954627857153E-006   4.1114985707885543E-018
 chl          14   3.3807707460992397E-008   7.2151544882887925E-007   4.6856526101924839E-002
 chl2c          15   2.0954299823745293E-002   2.0954299823745293E-002  0.25607262500000000        1.3509901371166780E-005   5.2128470600305982E-016
 chl          15   1.5118851042224490E-008   7.2151544882887925E-007   2.0954299823745293E-002
 chl2c          16  0.35117031667417553        3.7823443882273475E-002  0.71433214999999994        1.3509901371166780E-005   4.6659489091600629E-006
 chl          16   2.5337480865054742E-007   7.2151544882887925E-007  0.35117031667417553     
 chl2c          17   3.7542254757581245E-002   3.7542254757581245E-002  0.62580860000000005        1.3509901371166780E-005   7.0074259536802378E-016
 chl          17   2.7087316791464361E-008   7.2151544882887925E-007   3.7542254757581245E-002
 chl2c          18   2.5694475239060960E-002   2.5694475239060960E-002  0.47925950000000000        7.5799136373855172E-006   5.1913443663567913E-016
 chl          18   1.8538960834533592E-008   7.2151544882887925E-007   2.5694475239060960E-002
 chl2c          19  0.45935095301300943        3.7570220750293731E-002  0.63367130000000005        1.3509901371166780E-005   1.1279315910164971E-005
 chl          19   3.3142880903315495E-007   7.2151544882887925E-007  0.45935095301300943     
 chl2c          20   3.7020645196759419E-002   3.7020645196759419E-002  0.50678202500000002        1.3509901371166780E-005   8.5883885598768075E-016
 chl          20   2.6710967435074565E-008   7.2151544882887925E-007   3.7020645196759419E-002
 chl2c          21  0.53218882620856944        3.7838475073783531E-002  0.71973185000000006        1.3509901371166780E-005   1.3796144755585775E-005
 chl          21   3.8398245980359038E-007   7.2151544882887925E-007  0.53218882620856944     
 chl2c          22  0.41970012553654884        3.7613353106285476E-002  0.64616892500000001        1.3509901371166780E-005   8.0890770567573084E-006
 chl          22   3.0282012445004002E-007   7.2151544882887925E-007  0.41970012553654884     
 chl2c          23   3.2286562315070731E-002   3.2286562315070731E-002  0.41564179999999995        9.2015652654600624E-006   3.7981888115678290E-009
 chl          23   2.3295253499899836E-008   7.2151544882887925E-007   3.2286562315070731E-002
 chl2c          24   3.7348402796863071E-002   3.7348402796863071E-002  0.57597492500000003        1.3509901371166780E-005   8.3565331391763055E-016
 chl          24   2.6947449607020428E-008   7.2151544882887925E-007   3.7348402796863071E-002
 chl2c          25   4.5426679235459781E-002   4.5426679235459781E-002  0.31406487500000002        6.7423954627857153E-006   2.6883276848892966E-009
 chl          25   3.2776050857378295E-008   7.2151544882887925E-007   4.5426679235459781E-002
 chl2c          26   4.7955660680174553E-002   4.7955660680174553E-002  0.49427735000000000        6.7423954627857153E-006   2.8717009306757986E-019
 chl          26   3.4600750039541582E-008   7.2151544882887925E-007   4.7955660680174553E-002
 chl2c          27   4.5333133499525620E-002   4.5333133499525620E-002  0.30964730000000001        6.7423954627857153E-006   4.0759485363912693E-018
 chl          27   3.2708556163729731E-008   7.2151544882887925E-007   4.5333133499525620E-002
 chl2c          28   3.1209236063453518E-002   3.1209236063453518E-002  0.28776342500000002        9.2015652654600624E-006   4.0506451289606707E-018
 chl          28   2.2517945965929108E-008   7.2151544882887925E-007   3.1209236063453518E-002
 chl2c          29   3.7743217595736761E-002   3.7743217595736761E-002  0.68676297499999994        1.3509901371166780E-005   8.5493399466609050E-016
 chl          29   2.7232314583834062E-008   7.2151544882887925E-007   3.7743217595736761E-002
 chl2c          30   2.5380056985171612E-002   2.5380056985171612E-002  0.38930277499999999        7.5799136373855172E-006   5.2231000573893962E-016
 chl          30   1.8312103206958629E-008   7.2151544882887925E-007   2.5380056985171612E-002
 chl2c          31   3.7576959810037038E-002   3.7576959810037038E-002  0.63559385000000002        1.3509901371166780E-005   8.6222537992098755E-016
 chl          31   2.7112357022963632E-008   7.2151544882887925E-007   3.7576959810037038E-002
 chl2c          32   9.7774439018356349E-002   2.0893126428578448E-002  0.24722667500000001        1.3509901371166780E-005   1.0925477492485925E-006
 chl          32   7.0545768252321262E-008   7.2151544882887925E-007   9.7774439018356349E-002
 chl2c          33  0.46303192547874011        3.7458922634011876E-002  0.60343137499999999        1.3509901371166780E-005   1.3442981506761636E-005
 chl          33   3.3408468753389333E-007   7.2151544882887925E-007  0.46303192547874011     
 chl2c          34   2.5350269098008315E-002   2.5350269098008315E-002  0.38241020000000003        7.5799136373855172E-006   5.0705722884697724E-016
 chl          34   1.8290610786182338E-008   7.2151544882887925E-007   2.5350269098008315E-002
 chl2c          35   2.5740370148566064E-002   2.5740370148566064E-002  0.49574644999999995        7.5799136373855172E-006   5.0985036694772787E-016
 chl          35   1.8572074720764131E-008   7.2151544882887925E-007   2.5740370148566064E-002
 chl2c          36   3.7770393924465726E-002   3.7770393924465726E-002  0.69587337500000002        1.3509901371166780E-005   7.0074259536802378E-016
 chl          36   2.7251922724854463E-008   7.2151544882887925E-007   3.7770393924465726E-002
 chl2c          37   2.1353674699533250E-002   2.1353674699533250E-002  0.33194060000000003        1.3509901371166780E-005   5.0585318069896995E-016
 chl          37   1.5407006184979617E-008   7.2151544882887925E-007   2.1353674699533250E-002
 chl2c          38   2.1543295686358745E-002   2.1543295686358745E-002  0.38455722500000000        1.3509901371166780E-005   5.2298601821875747E-016
 chl          38   1.5543820656396389E-008   7.2151544882887925E-007   2.1543295686358745E-002
 chl2c          39   2.5670077108751441E-002   2.5670077108751441E-002  0.47091117500000002        7.5799136373855172E-006   5.1520702232842659E-016
 chl          39   1.8521357206592734E-008   7.2151544882887925E-007   2.5670077108751441E-002
 chl2c          40  0.33877162157009677        3.7687445774703773E-002  0.66875547499999999        1.3509901371166780E-005   4.6377129706586078E-006
 chl          40   2.4442895858763562E-007   7.2151544882887925E-007  0.33877162157009677     
 chl2c          41  0.34837859567317281        2.5582381488167241E-002  0.44304987499999998        7.5799136373855172E-006   6.1790270781259282E-006
 chl          41   2.5136053881950394E-007   7.2151544882887925E-007  0.34837859567317281     
 chl2c          42  0.44407604961735414        3.7949995630725070E-002  0.76234377499999995        1.3509901371166780E-005   7.1851823078519844E-006
 chl          42   3.2040773025382091E-007   7.2151544882887925E-007  0.44407604961735414     
 chl2c          43  0.23905480449578961        2.1185090152268007E-002  0.29539925000000000        1.3509901371166780E-005   8.4659936498380943E-006
 chl          43   1.7248173456047962E-007   7.2151544882887925E-007  0.23905480449578961     
 chl2c          44   3.7536352708156646E-002   3.7536352708156646E-002  0.62417262500000004        1.3509901371166780E-005   8.3693794672688557E-016
 chl          44   2.7083058371624761E-008   7.2151544882887925E-007   3.7536352708156646E-002
 chl2c          45   4.6544927192009838E-002   4.6544927192009838E-002  0.37662252499999999        6.7423954627857153E-006   3.8245444580660859E-019
 chl          45   3.3582884033650488E-008   7.2151544882887925E-007   4.6544927192009838E-002
 chl2c          46   3.7083195475449568E-002   3.7083195475449568E-002  0.51876034999999998        1.3509901371166780E-005   8.6213517602141831E-016
 chl          46   2.6756098427478060E-008   7.2151544882887925E-007   3.7083195475449568E-002
 chl2c          47   3.7519784612651236E-002   3.7519784612651236E-002  0.61962282499999999        1.3509901371166780E-005   8.6358979220274847E-016
 chl          47   2.7071104234759934E-008   7.2151544882887925E-007   3.7519784612651236E-002
 chl2c          48  0.31829389643221717        3.7823212136301673E-002  0.71424949999999998        1.3509901371166780E-005   3.8784120285368783E-006
 chl          48   2.2965396354378398E-007   7.2151544882887925E-007  0.31829389643221717     
 chl2c          49   3.7152990741888416E-002   3.7152990741888416E-002  0.53276120000000005        1.3509901371166780E-005   8.5209848795435939E-016
 chl          49   2.6806456790468817E-008   7.2151544882887925E-007   3.7152990741888416E-002
 chl2c          50  0.24845143507925146        2.1533072915600981E-002  0.38132569999999999        1.3509901371166780E-005   4.8163594756999929E-006
 chl          50   1.7926154869338528E-007   7.2151544882887925E-007  0.24845143507925146     
 chl2c          51   2.0700971146093840E-002   2.0700971146093840E-002  0.22275920000000002        1.3509901371166780E-005   5.2492257166461887E-016
 chl          51   1.4936070487667577E-008   7.2151544882887925E-007   2.0700971146093840E-002
 chl2c          52  0.22950331368678736        3.7581825176985564E-002  0.63698869999999996        1.3509901371166780E-005   2.4234319722643500E-006
 chl          52   1.6559018638243744E-007   7.2151544882887925E-007  0.22950331368678736     
 chl2c          53  0.43230662457559732        3.7925801262726190E-002  0.75269794999999995        1.3509901371166780E-005   6.8604729700892457E-006
 chl          53   3.1191590826235991E-007   7.2151544882887925E-007  0.43230662457559732     
 chl2c          54   3.7082433371327092E-002   3.7082433371327092E-002  0.51861124999999997        1.3509901371166780E-005   8.3674645074062372E-016
 chl          54   2.6755548557580077E-008   7.2151544882887925E-007   3.7082433371327092E-002
 chl2c          55  0.40384823054073404        3.7357235588660491E-002  0.57808280000000001        1.3509901371166780E-005   9.0509900697276620E-006
 chl          55   2.9138273731734643E-007   7.2151544882887925E-007  0.40384823054073404     
 chl2c          56   3.7507394187257688E-002   3.7507394187257688E-002  0.61626080000000005        1.3509901371166780E-005   7.0074259536802378E-016
 chl          56   2.7062164351420927E-008   7.2151544882887925E-007   3.7507394187257688E-002
 chl2c          57   3.7727617852646313E-002   3.7727617852646313E-002  0.68163462500000005        1.3509901371166780E-005   8.6885976323210150E-016
 chl          57   2.7221059128196542E-008   7.2151544882887925E-007   3.7727617852646313E-002
 chl2c          58  0.49102765953130917        3.7765358178394853E-002  0.69416802499999997        1.3509901371166780E-005   1.1334347279488746E-005
 chl          58   3.5428404215412666E-007   7.2151544882887925E-007  0.49102765953130917     
 chl2c          59  0.42624388389814671        3.7173699120809672E-002  0.53705127500000005        1.3509901371166780E-005   1.3954920459379546E-005
 chl          59   3.0754154720133604E-007   7.2151544882887925E-007  0.42624388389814671     
 chl2c          60  0.48727262353311473        3.7607757740906807E-002  0.64452155000000000        1.3509901371166780E-005   1.3490993980833341E-005
 chl          60   3.5157472567052082E-007   7.2151544882887925E-007  0.48727262353311473     
 chl2c          61   3.7805373434125003E-002   3.7805373434125003E-002  0.70794139999999994        1.3509901371166780E-005   8.5649226587841439E-016
 chl          61   2.7277160981466090E-008   7.2151544882887925E-007   3.7805373434125003E-002
 chl2c          62  0.33675821868223760        3.7956103087269030E-002  0.76481592499999995        1.3509901371166780E-005   4.0643863917617493E-006
 chl          62   2.4297625729932852E-007   7.2151544882887925E-007  0.33675821868223760     
 chl2c          63  0.50050137104331105        3.7855601011927406E-002  0.72597904999999996        1.3509901371166780E-005   1.0885490093687201E-005
 chl          63   3.6111947136778402E-007   7.2151544882887925E-007  0.50050137104331105     
 chl2c          64   2.5708982294816416E-002   2.5708982294816416E-002  0.48435739999999999        7.5799136373855172E-006   4.9929749424968984E-016
 chl          64   1.8549427899378177E-008   7.2151544882887925E-007   2.5708982294816416E-002
 chl2c          65  0.52305310836714813        3.7953597170552002E-002  0.76379975000000000        1.3509901371166780E-005   1.1209525893565014E-005
 chl          65   3.7739089824486330E-007   7.2151544882887925E-007  0.52305310836714813     
 chl2c          66   3.1840477731474713E-002   3.1840477731474713E-002  0.35213202499999996        9.2015652654600624E-006   3.1453545767979764E-019
 chl          66   2.2973396581350913E-008   7.2151544882887925E-007   3.1840477731474713E-002
 chl2c          67   3.7937587124568600E-002   3.7937587124568600E-002  0.75736760000000003        1.3509901371166780E-005   8.5148140483487182E-016
 chl          67   2.7372555201667825E-008   7.2151544882887925E-007   3.7937587124568600E-002
 chl2c          68  0.50683486681663381        3.7855407263856986E-002  0.72590779999999999        1.3509901371166780E-005   1.1344396742333117E-005
 chl          68   3.6568918641332878E-007   7.2151544882887925E-007  0.50683486681663381     
 chl2c          69   2.1732330561541505E-002   2.1732330561541505E-002  0.45524217500000003        1.3509901371166780E-005   5.0840979731422991E-016
 chl          69   1.5680212239208189E-008   7.2151544882887925E-007   2.1732330561541505E-002
 chl2c          70   3.2658010878182209E-002   3.2658010878182209E-002  0.48694062500000002        9.2015652654600624E-006   5.0068209157852557E-018
 chl          70   2.3563259376630057E-008   7.2151544882887925E-007   3.2658010878182209E-002
 chl2c          71   4.3481058864416305E-002   4.3481058864416305E-002  0.23986107500000001        6.7423954627857153E-006   5.6268567330988624E-009
 chl          71   3.1372255702114249E-008   7.2151544882887925E-007   4.3481058864416305E-002
 chl2c          72  0.13331024923567580        3.7549776402781669E-002  0.62790522500000001        1.3509901371166780E-005   1.1432208060576078E-006
 chl          72   9.6185404310768388E-008   7.2151544882887925E-007  0.13331024923567580     
 chl2c          73   3.1852614277819484E-002   3.1852614277819484E-002  0.35362212500000001        9.2015652654600624E-006   3.9498903168359792E-019
 chl          73   2.2982153287034094E-008   7.2151544882887925E-007   3.1852614277819484E-002
 chl2c          74  0.49192817222246182        3.7616827685877569E-002  0.64719590000000005        1.3509901371166780E-005   1.3850914152604917E-005
 chl          74   3.5493377597265974E-007   7.2151544882887925E-007  0.49192817222246182     
 chl2c          75   3.7826830779512356E-002   3.7826830779512356E-002  0.71554212500000003        1.3509901371166780E-005   7.0074259536802378E-016
 chl          75   2.7292642787653923E-008   7.2151544882887925E-007   3.7826830779512356E-002
 chl2c          76  0.26223291911326951        3.7257729557919804E-002  0.55513977500000000        1.3509901371166780E-005   3.3572385416526238E-006
 chl          76   1.8920510233171785E-007   7.2151544882887925E-007  0.26223291911326951     
 chl2c          77  0.41838006115219606        3.7138172437479272E-002  0.52973029999999999        1.3509901371166780E-005   1.3444876699977911E-005
 chl          77   3.0186767760328067E-007   7.2151544882887925E-007  0.41838006115219606     
 chl2c          78   4.7515248899399322E-002   4.7515248899399322E-002  0.45117492500000000        6.7423954627857153E-006   5.1680665248646874E-018
 chl          78   3.4282986135866016E-008   7.2151544882887925E-007   4.7515248899399322E-002
 prod   1.4280167677681562E-009   9.5655029342863038        10.000000000000000     
 chl2c           1  0.47747942452709491        3.7477407714772232E-002  0.60826437499999997        1.0229590925316861E-005   1.1358410023424134E-005
 chl           1   3.1000210529641169E-011   6.4924704473589395E-011  0.47747942452709491     
 chl2c           2   3.2640259920490348E-002   3.2640259920490348E-002  0.48302390000000001        7.0055992225969670E-006   2.5290878212620045E-019
 chl           2   2.1191592292789803E-012   6.4924704473589395E-011   3.2640259920490348E-002
 chl2c           3   3.7922212503796585E-002   3.7922212503796585E-002  0.75128689999999998        1.0229590925316861E-005   7.3620506531900153E-016
 chl           3   2.4620884397936498E-012   6.4924704473589395E-011   3.7922212503796585E-002
 chl2c           4  0.55449110365061061        3.7976509103863923E-002  0.77318742499999993        1.0229590925316861E-005   1.0026887865611649E-005
 chl           4   3.6000171037750320E-011   6.4924704473589395E-011  0.55449110365061061     
 chl2c           5   2.5710500362372445E-002   2.5710500362372445E-002  0.48489679999999996        5.8008222430462267E-006   5.2046081322321430E-016
 chl           5   1.6692466378951440E-012   6.4924704473589395E-011   2.5710500362372445E-002
 chl2c           6   3.1261039902252048E-002   3.1261039902252048E-002  0.29222855000000003        7.0055992225969670E-006   3.9384370481194920E-008
 chl           6   2.0296137771908000E-012   6.4924704473589395E-011   3.1261039902252048E-002
 chl2c           7   4.3064391842467263E-002   4.3064391842467263E-002  0.22770740000000000        5.1736435819335890E-006   2.4678725881680533E-019
 chl           7   2.7959429137070411E-012   6.4924704473589395E-011   4.3064391842467263E-002
 chl2c           8   4.7969800906495587E-002   4.7969800906495587E-002  0.49578364999999996        5.1736435819335890E-006   3.9976230890777768E-009
 chl           8   3.1144251475111465E-012   6.4924704473589395E-011   4.7969800906495587E-002
 chl2c           9  0.25410057029705418        2.4803669054600401E-002  0.28700202499999999        5.8008222430462267E-006   6.4288761937238294E-006
 chl           9   1.6497404433106769E-011   6.4924704473589395E-011  0.25410057029705418     
 chl2c          10   2.5387016219684602E-002   2.5387016219684602E-002  0.39094662499999999        5.8008222430462267E-006   5.2636106352446589E-016
 chl          10   1.6482445255292434E-012   6.4924704473589395E-011   2.5387016219684602E-002
 chl2c          11   2.1820572217820047E-002   2.1820572217820047E-002  0.49737575000000001        1.0229590925316861E-005   5.2730878705681351E-016
 chl          11   1.4166942026865816E-012   6.4924704473589395E-011   2.1820572217820047E-002
 chl2c          12   4.5290941298723353E-002   4.5290941298723353E-002  0.30768942500000002        5.1736435819335890E-006   2.5965265237798194E-019
 chl          12   2.9405009791502988E-012   6.4924704473589395E-011   4.5290941298723353E-002
 chl2c          13  0.40124939204166354        3.7935816987997487E-002  0.75666275000000005        1.0229590925316861E-005   4.3692939826487953E-006
 chl          13   2.6050998198512417E-011   6.4924704473589395E-011  0.40124939204166354     
 chl2c          14   4.6856526101924839E-002   4.6856526101924839E-002  0.39804095000000000        5.1736435819335890E-006   3.5789967717755011E-018
 chl          14   3.0421461098264978E-012   6.4924704473589395E-011   4.6856526101924839E-002
 chl2c          15   2.0954299823745293E-002   2.0954299823745293E-002  0.25607262500000000        1.0229590925316861E-005   5.2999887998887237E-016
 chl          15   1.3604517235076496E-012   6.4924704473589395E-011   2.0954299823745293E-002
 chl2c          16  0.47497777068804004        3.7823443882273475E-002  0.71433214999999994        1.0229590925316861E-005   7.2503734229209963E-006
 chl          16   3.0837791393445309E-011   6.4924704473589395E-011  0.47497777068804004     
 chl2c          17   3.7542254757581245E-002   3.7542254757581245E-002  0.62580860000000005        1.0229590925316861E-005   7.3620506531900153E-016
 chl          17   2.4374197954081680E-012   6.4924704473589395E-011   3.7542254757581245E-002
 chl2c          18   2.5694475239060960E-002   2.5694475239060960E-002  0.47925950000000000        5.8008222430462267E-006   5.2844561877707079E-016
 chl          18   1.6682062114999930E-012   6.4924704473589395E-011   2.5694475239060960E-002
 chl2c          19  0.48961518059253339        3.7570220750293731E-002  0.63367130000000005        1.0229590925316861E-005   1.1015785534302260E-005
 chl          19   3.1788120905753331E-011   6.4924704473589395E-011  0.48961518059253339     
 chl2c          20  0.20975311817305989        3.7020645196759419E-002  0.50678202500000002        1.0229590925316861E-005   1.8304555311039075E-006
 chl          20   1.3618159209799786E-011   6.4924704473589395E-011  0.20975311817305989     
 chl2c          21  0.56648890877418823        3.7838475073783531E-002  0.71973185000000006        1.0229590925316861E-005   1.3608489589145986E-005
 chl          21   3.6779124989730314E-011   6.4924704473589395E-011  0.56648890877418823     
 chl2c          22  0.40709289536259158        3.7613353106285476E-002  0.64616892500000001        1.0229590925316861E-005   5.6277115306258960E-006
 chl          22   2.6430385924714107E-011   6.4924704473589395E-011  0.40709289536259158     
 chl2c          23   3.2286562315070731E-002   3.2286562315070731E-002  0.41564179999999995        7.0055992225969670E-006   4.5442996409547060E-009
 chl          23   2.0961955167740957E-012   6.4924704473589395E-011   3.2286562315070731E-002
 chl2c          24   3.7348402796863071E-002   3.7348402796863071E-002  0.57597492500000003        1.0229590925316861E-005   8.7090574676246087E-016
 chl          24   2.4248340141469144E-012   6.4924704473589395E-011   3.7348402796863071E-002
 chl2c          25   4.5426679235459781E-002   4.5426679235459781E-002  0.31406487500000002        5.1736435819335890E-006   3.3510581851422075E-009
 chl          25   2.9493137245787662E-012   6.4924704473589395E-011   4.5426679235459781E-002
 chl2c          26   4.7955660680174553E-002   4.7955660680174553E-002  0.49427735000000000        5.1736435819335890E-006   2.4955019551097644E-019
 chl          26   3.1135070974960638E-012   6.4924704473589395E-011   4.7955660680174553E-002
 chl2c          27   4.5333133499525620E-002   4.5333133499525620E-002  0.30964730000000001        5.1736435819335890E-006   3.5480253867852796E-018
 chl          27   2.9432402953184765E-012   6.4924704473589395E-011   4.5333133499525620E-002
 chl2c          28   3.1209236063453518E-002   3.1209236063453518E-002  0.28776342500000002        7.0055992225969670E-006   3.5259811917020465E-018
 chl          28   2.0262504282662083E-012   6.4924704473589395E-011   3.1209236063453518E-002
 chl2c          29   3.7743217595736761E-002   3.7743217595736761E-002  0.68676297499999994        1.0229590925316861E-005   8.8541137630659443E-016
 chl          29   2.4504672482855884E-012   6.4924704473589395E-011   3.7743217595736761E-002
 chl2c          30   2.5380056985171612E-002   2.5380056985171612E-002  0.38930277499999999        5.8008222430462267E-006   5.3073833988479507E-016
 chl          30   1.6477926992851252E-012   6.4924704473589395E-011   2.5380056985171612E-002
 chl2c          31   3.7576959810037038E-002   3.7576959810037038E-002  0.63559385000000002        1.0229590925316861E-005   8.9085015102398449E-016
 chl          31   2.4396730106826006E-012   6.4924704473589395E-011   3.7576959810037038E-002
 chl2c          32   2.0893126428578448E-002   2.0893126428578448E-002  0.24722667500000001        1.0229590925316861E-005   5.3111885814387256E-016
 chl          32   1.3564800589047959E-012   6.4924704473589395E-011   2.0893126428578448E-002
 chl2c          33  0.48629057812337101        3.7458922634011876E-002  0.60343137499999999        1.0229590925316861E-005   1.2812793878016761E-005
 chl          33   3.1572272072950797E-011   6.4924704473589395E-011  0.48629057812337101     
 chl2c          34   2.5350269098008315E-002   2.5350269098008315E-002  0.38241020000000003        5.8008222430462267E-006   5.1965659314683988E-016
 chl          34   1.6458587295141555E-012   6.4924704473589395E-011   2.5350269098008315E-002
 chl2c          35   2.5740370148566064E-002   2.5740370148566064E-002  0.49574644999999995        5.8008222430462267E-006   5.2169933658451489E-016
 chl          35   1.6711859249364541E-012   6.4924704473589395E-011   2.5740370148566064E-002
 chl2c          36   3.7770393924465726E-002   3.7770393924465726E-002  0.69587337500000002        1.0229590925316861E-005   7.3620506531900153E-016
 chl          36   2.4522316633969935E-012   6.4924704473589395E-011   3.7770393924465726E-002
 chl2c          37   2.1353674699533250E-002   2.1353674699533250E-002  0.33194060000000003        1.0229590925316861E-005   5.1877410693775684E-016
 chl          37   1.3863810192923590E-012   6.4924704473589395E-011   2.1353674699533250E-002
 chl2c          38   2.1543295686358745E-002   2.1543295686358745E-002  0.38455722500000000        1.0229590925316861E-005   5.3122548269756674E-016
 chl          38   1.3986921058239947E-012   6.4924704473589395E-011   2.1543295686358745E-002
 chl2c          39   2.5670077108751441E-002   2.5670077108751441E-002  0.47091117500000002        5.8008222430462267E-006   5.2559979469150651E-016
 chl          39   1.6666221700999394E-012   6.4924704473589395E-011   2.5670077108751441E-002
 chl2c          40  0.45389575319693648        3.7687445774703773E-002  0.66875547499999999        1.0229590925316861E-005   7.2259796151202154E-006
 chl          40   2.9469047638128369E-011   6.4924704473589395E-011  0.45389575319693648     
 chl2c          41  0.37711196815635828        2.5582381488167241E-002  0.44304987499999998        5.8008222430462267E-006   7.3493230701660050E-006
 chl          41   2.4483883086005217E-011   6.4924704473589395E-011  0.37711196815635828     
 chl2c          42  0.54732777092311347        3.7949995630725070E-002  0.76234377499999995        1.0229590925316861E-005   9.9255784772578225E-006
 chl          42   3.5535093777371575E-011   6.4924704473589395E-011  0.54732777092311347     
 chl2c          43  0.24936142379329559        2.1185090152268007E-002  0.29539925000000000        1.0229590925316861E-005   8.1837455813957128E-006
 chl          43   1.6189716746893201E-011   6.4924704473589395E-011  0.24936142379329559     
 chl2c          44  0.13263958965635234        3.7536352708156646E-002  0.62417262500000004        1.0229590925316861E-005   8.6149635991241262E-007
 chl          44   8.6115861599368394E-012   6.4924704473589395E-011  0.13263958965635234     
 chl2c          45   4.6544927192009838E-002   4.6544927192009838E-002  0.37662252499999999        5.1736435819335890E-006   3.3235962512015716E-019
 chl          45   3.0219156426859737E-012   6.4924704473589395E-011   4.6544927192009838E-002
 chl2c          46   3.7083195475449568E-002   3.7083195475449568E-002  0.51876034999999998        1.0229590925316861E-005   8.9078302151987967E-016
 chl          46   2.4076155071799104E-012   6.4924704473589395E-011   3.7083195475449568E-002
 chl2c          47   3.7519784612651236E-002   3.7519784612651236E-002  0.61962282499999999        1.0229590925316861E-005   8.9186507075647337E-016
 chl          47   2.4359609278891082E-012   6.4924704473589395E-011   3.7519784612651236E-002
 chl2c          48  0.47115334172771406        3.7823212136301673E-002  0.71424949999999998        1.0229590925316861E-005   7.0804750446599097E-006
 chl          48   3.0589491473415910E-011   6.4924704473589395E-011  0.47115334172771406     
 chl2c          49   3.7152990741888416E-002   3.7152990741888416E-002  0.53276120000000005        1.0229590925316861E-005   8.8328942941748450E-016
 chl          49   2.4121469442271084E-012   6.4924704473589395E-011   3.7152990741888416E-002
 chl2c          50  0.19500471171455577        2.1533072915600981E-002  0.38132569999999999        1.0229590925316861E-005   2.0413039372116964E-006
 chl          50   1.2660623279025030E-011   6.4924704473589395E-011  0.19500471171455577     
 chl2c          51   2.0700971146093840E-002   2.0700971146093840E-002  0.22275920000000002        1.0229590925316861E-005   5.3261923607363496E-016
 chl          51   1.3440044339764437E-012   6.4924704473589395E-011   2.0700971146093840E-002
 chl2c          52  0.38902124623285439        3.7581825176985564E-002  0.63698869999999996        1.0229590925316861E-005   5.1113855119494532E-006
 chl          52   2.5257089445615523E-011   6.4924704473589395E-011  0.38902124623285439     
 chl2c          53  0.52680964107673867        3.7925801262726190E-002  0.75269794999999995        1.0229590925316861E-005   8.9786070421676920E-006
 chl          53   3.4202960260744957E-011   6.4924704473589395E-011  0.52680964107673867     
 chl2c          54   3.7082433371327092E-002   3.7082433371327092E-002  0.51861124999999997        1.0229590925316861E-005   8.7173301336368970E-016
 chl          54   2.4075660277949808E-012   6.4924704473589395E-011   3.7082433371327092E-002
 chl2c          55  0.38008664930292524        3.7357235588660491E-002  0.57808280000000001        1.0229590925316861E-005   5.6760235282517146E-006
 chl          55   2.4677013380349233E-011   6.4924704473589395E-011  0.38008664930292524     
 chl2c          56   3.7507394187257688E-002   3.7507394187257688E-002  0.61626080000000005        1.0229590925316861E-005   7.3620506531900153E-016
 chl          56   2.4351564831821300E-012   6.4924704473589395E-011   3.7507394187257688E-002
 chl2c          57   3.7727617852646313E-002   3.7727617852646313E-002  0.68163462500000005        1.0229590925316861E-005   8.9577685216474369E-016
 chl          57   2.4494544395755771E-012   6.4924704473589395E-011   3.7727617852646313E-002
 chl2c          58  0.52753353028062855        3.7765358178394853E-002  0.69416802499999997        1.0229590925316861E-005   1.1240303461232291E-005
 chl          58   3.4249958553379131E-011   6.4924704473589395E-011  0.52753353028062855     
 chl2c          59  0.44811101770405415        3.7173699120809672E-002  0.53705127500000005        1.0229590925316861E-005   1.3839846195561676E-005
 chl          59   2.9093475395795101E-011   6.4924704473589395E-011  0.44811101770405415     
 chl2c          60  0.51701504020692335        3.7607757740906807E-002  0.64452155000000000        1.0229590925316861E-005   1.3367079565624975E-005
 chl          60   3.3567048693835436E-011   6.4924704473589395E-011  0.51701504020692335     
 chl2c          61   3.7805373434125003E-002   3.7805373434125003E-002  0.70794139999999994        1.0229590925316861E-005   8.8657585864827506E-016
 chl          61   2.4545026977242533E-012   6.4924704473589395E-011   3.7805373434125003E-002
 chl2c          62  0.49599193420366527        3.7956103087269030E-002  0.76481592499999995        1.0229590925316861E-005   7.2175829442776109E-006
 chl          62   3.2202129749456962E-011   6.4924704473589395E-011  0.49599193420366527     
 chl2c          63  0.52979170969447553        3.7855601011927406E-002  0.72597904999999996        1.0229590925316861E-005   1.0027358402480251E-005
 chl          63   3.4396570184471490E-011   6.4924704473589395E-011  0.52979170969447553     
 chl2c          64   2.5708982294816416E-002   2.5708982294816416E-002  0.48435739999999999        5.8008222430462267E-006   5.1394872998425200E-016
 chl          64   1.6691480778076979E-012   6.4924704473589395E-011   2.5708982294816416E-002
 chl2c          65  0.56818938187891166        3.7953597170552002E-002  0.76379975000000000        1.0229590925316861E-005   1.1347730844589771E-005
 chl          65   3.6889527703519767E-011   6.4924704473589395E-011  0.56818938187891166     
 chl2c          66   3.1840477731474713E-002   3.1840477731474713E-002  0.35213202499999996        7.0055992225969670E-006   2.7333241753136104E-019
 chl          66   2.0672336070138998E-012   6.4924704473589395E-011   3.1840477731474713E-002
 chl2c          67   3.7937587124568600E-002   3.7937587124568600E-002  0.75736760000000003        1.0229590925316861E-005   8.8282712250830603E-016
 chl          67   2.4630866325036666E-012   6.4924704473589395E-011   3.7937587124568600E-002
 chl2c          68  0.54652773591766202        3.7855407263856986E-002  0.72590779999999999        1.0229590925316861E-005   1.1312218013025660E-005
 chl          68   3.5483151741074115E-011   6.4924704473589395E-011  0.54652773591766202     
 chl2c          69   2.1732330561541505E-002   2.1732330561541505E-002  0.45524217500000003        1.0229590925316861E-005   5.2064655711942137E-016
 chl          69   1.4109651392304372E-012   6.4924704473589395E-011   2.1732330561541505E-002
 chl2c          70   3.2658010878182209E-002   3.2658010878182209E-002  0.48694062500000002        7.0055992225969670E-006   4.3591538854175391E-018
 chl          70   2.1203117049612476E-012   6.4924704473589395E-011   3.2658010878182209E-002
 chl2c          71   4.3481058864416305E-002   4.3481058864416305E-002  0.23986107500000001        5.1736435819335890E-006   4.7157880316414800E-009
 chl          71   2.8229948969709731E-012   6.4924704473589395E-011   4.3481058864416305E-002
 chl2c          72  0.33453129427629846        3.7549776402781669E-002  0.62790522500000001        1.0229590925316861E-005   3.6621623995642776E-006
 chl          72   2.1719345418056045E-011   6.4924704473589395E-011  0.33453129427629846     
 chl2c          73   3.1852614277819484E-002   3.1852614277819484E-002  0.35362212500000001        7.0055992225969670E-006   3.4325342344557606E-019
 chl          73   2.0680215686986641E-012   6.4924704473589395E-011   3.1852614277819484E-002
 chl2c          74  0.52073774222016145        3.7616827685877569E-002  0.64719590000000005        1.0229590925316861E-005   1.3631267282999257E-005
 chl          74   3.3808744021888158E-011   6.4924704473589395E-011  0.52073774222016145     
 chl2c          75   3.7826830779512356E-002   3.7826830779512356E-002  0.71554212500000003        1.0229590925316861E-005   7.3620506531900153E-016
 chl          75   2.4558958095323147E-012   6.4924704473589395E-011   3.7826830779512356E-002
 chl2c          76  0.11869555047072995        3.7257729557919804E-002  0.55513977500000000        1.0229590925316861E-005   7.7221157000521193E-007
 chl          76   7.7062735366421568E-012   6.4924704473589395E-011  0.11869555047072995     
 chl2c          77  0.44051976179284313        3.7138172437479272E-002  0.52973029999999999        1.0229590925316861E-005   1.3379267048801324E-005
 chl          77   2.8600615349176336E-011   6.4924704473589395E-011  0.44051976179284313     
 chl2c          78   4.7515248899399322E-002   4.7515248899399322E-002  0.45117492500000000        5.1736435819335890E-006   4.4996886124081471E-018
 chl          78   3.0849134927825446E-012   6.4924704473589395E-011   4.7515248899399322E-002
 prod   1.2408587690294209E-009   7.2277338396745261        10.000000000000000     
 chl2c           1  0.50364768908146651        3.7477407714772232E-002  0.60826437499999997        7.7599744961070320E-006   1.1361837326922593E-005
 chl           1   2.9423963560038012E-015   5.8421718590033276E-015  0.50364768908146651     
 chl2c           2   3.2640259920490348E-002   3.2640259920490348E-002  0.48302390000000001        5.3404768042247188E-006   2.4020253604634773E-019
 chl           2   1.9069000797804290E-016   5.8421718590033276E-015   3.2640259920490348E-002
 chl2c           3   3.7922212503796585E-002   3.7922212503796585E-002  0.75128689999999998        7.7599744961070320E-006   7.6822460752959337E-016
 chl           3   2.2154808272082452E-016   5.8421718590033276E-015   3.7922212503796585E-002
 chl2c           4  0.57383024651488035        3.7976509103863923E-002  0.77318742499999993        7.7599744961070320E-006   8.6350854200276096E-006
 chl           4   3.3524149180341763E-015   5.8421718590033276E-015  0.57383024651488035     
 chl2c           5   2.5710500362372445E-002   2.5710500362372445E-002  0.48489679999999996        4.4461397381241738E-006   5.2702741877613760E-016
 chl           5   1.5020516169794716E-016   5.8421718590033276E-015   2.5710500362372445E-002
 chl2c           6   3.1261039902252048E-002   3.1261039902252048E-002  0.29222855000000003        5.3404768042247188E-006   5.1378877088399439E-008
 chl           6   1.8263236760011704E-016   5.8421718590033276E-015   3.1261039902252048E-002
 chl2c           7   4.3064391842467263E-002   4.3064391842467263E-002  0.22770740000000000        3.9731251782953771E-006   2.3438842985074460E-019
 chl           7   2.5158957814715470E-016   5.8421718590033276E-015   4.3064391842467263E-002
 chl2c           8   4.7969800906495587E-002   4.7969800906495587E-002  0.49578364999999996        3.9731251782953771E-006   3.4540485202494463E-009
 chl           8   2.8024782093792082E-016   5.8421718590033276E-015   4.7969800906495587E-002
 chl2c           9  0.25050165577163491        2.4803669054600401E-002  0.28700202499999999        4.4461397381241738E-006   4.3787627663723872E-006
 chl           9   1.4634737239827840E-015   5.8421718590033276E-015  0.25050165577163491     
 chl2c          10   2.5387016219684602E-002   2.5387016219684602E-002  0.39094662499999999        4.4461397381241738E-006   5.3171730809289453E-016
 chl          10   1.4831531174270242E-016   5.8421718590033276E-015   2.5387016219684602E-002
 chl2c          11   2.1820572217820047E-002   2.1820572217820047E-002  0.49737575000000001        7.7599744961070320E-006   5.3246876673856432E-016
 chl          11   1.2747953295829810E-016   5.8421718590033276E-015   2.1820572217820047E-002
 chl2c          12   4.5290941298723353E-002   4.5290941298723353E-002  0.30768942500000002        3.9731251782953771E-006   3.2105913210343011E-010
 chl          12   2.6459746272317320E-016   5.8421718590033276E-015   4.5290941298723353E-002
 chl2c          13  0.53460370464795270        3.7935816987997487E-002  0.75666275000000005        7.7599744961070320E-006   7.0679936109783072E-006
 chl          13   3.1232467190131956E-015   5.8421718590033276E-015  0.53460370464795270     
 chl2c          14   4.6856526101924839E-002   4.6856526101924839E-002  0.39804095000000000        3.9731251782953771E-006   3.4026820670711485E-018
 chl          14   2.7374387820332016E-016   5.8421718590033276E-015   4.6856526101924839E-002
 chl2c          15   2.0954299823745293E-002   2.0954299823745293E-002  0.25607262500000000        7.7599744961070320E-006   5.3459916004063117E-016
 chl          15   1.2241862075540315E-016   5.8421718590033276E-015   2.0954299823745293E-002
 chl2c          16  0.54693407982833353        3.7823443882273475E-002  0.71433214999999994        7.7599744961070320E-006   9.0555541847305007E-006
 chl          16   3.1952828899029697E-015   5.8421718590033276E-015  0.54693407982833353     
 chl2c          17   3.7542254757581245E-002   3.7542254757581245E-002  0.62580860000000005        7.7599744961070320E-006   7.6822460752959337E-016
 chl          17   2.1932830426827495E-016   5.8421718590033276E-015   3.7542254757581245E-002
 chl2c          18   2.5694475239060960E-002   2.5694475239060960E-002  0.47925950000000000        4.4461397381241738E-006   5.3336953027951552E-016
 chl          18   1.5011154017349973E-016   5.8421718590033276E-015   2.5694475239060960E-002
 chl2c          19  0.51244862288730830        3.7570220750293731E-002  0.63367130000000005        7.7599744961070320E-006   1.0393475471201799E-005
 chl          19   2.9938129238172410E-015   5.8421718590033276E-015  0.51244862288730830     
 chl2c          20  0.35240807842234539        3.7020645196759419E-002  0.50678202500000002        7.7599744961070320E-006   4.4887286153114947E-006
 chl          20   2.0588285586444639E-015   5.8421718590033276E-015  0.35240807842234539     
 chl2c          21  0.59371142016875067        3.7838475073783531E-002  0.71973185000000006        7.7599744961070320E-006   1.3156351443235207E-005
 chl          21   3.4685641512787760E-015   5.8421718590033276E-015  0.59371142016875067     
 chl2c          22  0.35838935656390847        3.7613353106285476E-002  0.64616892500000001        7.7599744961070320E-006   3.1222775994982747E-006
 chl          22   2.0937722134839755E-015   5.8421718590033276E-015  0.35838935656390847     
 chl2c          23   3.2286562315070731E-002   3.2286562315070731E-002  0.41564179999999995        5.3404768042247188E-006   4.7590049181152758E-009
 chl          23   1.8862364578106356E-016   5.8421718590033276E-015   3.2286562315070731E-002
 chl2c          24   3.7348402796863071E-002   3.7348402796863071E-002  0.57597492500000003        7.7599744961070320E-006   8.9022573360258581E-016
 chl          24   2.1819578779855461E-016   5.8421718590033276E-015   3.7348402796863071E-002
 chl2c          25   4.5426679235459781E-002   4.5426679235459781E-002  0.31406487500000002        3.9731251782953771E-006   3.5763546514896706E-009
 chl          25   2.6539046707737391E-016   5.8421718590033276E-015   4.5426679235459781E-002
 chl2c          26   4.7955660680174553E-002   4.7955660680174553E-002  0.49427735000000000        3.9731251782953771E-006   2.3701261367221829E-019
 chl          26   2.8016521130562815E-016   5.8421718590033276E-015   4.7955660680174553E-002
 chl2c          27   4.5333133499525620E-002   4.5333133499525620E-002  0.30964730000000001        3.9731251782953771E-006   3.3732283904497019E-018
 chl          27   2.6484395681136960E-016   5.8421718590033276E-015   4.5333133499525620E-002
 chl2c          28   3.1209236063453518E-002   3.1209236063453518E-002  0.28776342500000002        5.3404768042247188E-006   3.3522645252301798E-018
 chl          28   1.8232972067089994E-016   5.8421718590033276E-015   3.1209236063453518E-002
 chl2c          29   3.7743217595736761E-002   3.7743217595736761E-002  0.68676297499999994        7.7599744961070320E-006   9.0195325175651753E-016
 chl          29   2.2050236370605254E-016   5.8421718590033276E-015   3.7743217595736761E-002
 chl2c          30   2.5380056985171612E-002   2.5380056985171612E-002  0.38930277499999999        4.4461397381241738E-006   5.3518412500040439E-016
 chl          30   1.4827465469867043E-016   5.8421718590033276E-015   2.5380056985171612E-002
 chl2c          31   3.7576959810037038E-002   3.7576959810037038E-002  0.63559385000000002        7.7599744961070320E-006   9.0633014755528717E-016
 chl          31   2.1953105714909741E-016   5.8421718590033276E-015   3.7576959810037038E-002
 chl2c          32   2.0893126428578448E-002   2.0893126428578448E-002  0.24722667500000001        7.7599744961070320E-006   5.3548503942217561E-016
 chl          32   1.2206123526763970E-016   5.8421718590033276E-015   2.0893126428578448E-002
 chl2c          33  0.50171419010753782        3.7458922634011876E-002  0.60343137499999999        7.7599744961070320E-006   1.1548357978371115E-005
 chl          33   2.9311005227089031E-015   5.8421718590033276E-015  0.50171419010753782     
 chl2c          34   2.5350269098008315E-002   2.5350269098008315E-002  0.38241020000000003        4.4461397381241738E-006   5.2638657838813470E-016
 chl          34   1.4810062874254585E-016   5.8421718590033276E-015   2.5350269098008315E-002
 chl2c          35   2.5740370148566064E-002   2.5740370148566064E-002  0.49574644999999995        4.4461397381241738E-006   5.2801356998895863E-016
 chl          35   1.5037966612228197E-016   5.8421718590033276E-015   2.5740370148566064E-002
 chl2c          36   3.7770393924465726E-002   3.7770393924465726E-002  0.69587337500000002        7.7599744961070320E-006   7.6822460752959337E-016
 chl          36   2.2066113248898392E-016   5.8421718590033276E-015   3.7770393924465726E-002
 chl2c          37   2.1353674699533250E-002   2.1353674699533250E-002  0.33194060000000003        7.7599744961070320E-006   5.2568291925031655E-016
 chl          37   1.2475183741592448E-016   5.8421718590033276E-015   2.1353674699533250E-002
 chl2c          38   2.1543295686358745E-002   2.1543295686358745E-002  0.38455722500000000        7.7599744961070320E-006   5.3556934607022004E-016
 chl          38   1.2585963580903285E-016   5.8421718590033276E-015   2.1543295686358745E-002
 chl2c          39   2.5670077108751441E-002   2.5670077108751441E-002  0.47091117500000002        4.4461397381241738E-006   5.3111333115860470E-016
 chl          39   1.4996900210319318E-016   5.8421718590033276E-015   2.5670077108751441E-002
 chl2c          40  0.51958274579695085        3.7687445774703773E-002  0.66875547499999999        7.7599744961070320E-006   9.0378043184449006E-006
 chl          40   3.0354916959186258E-015   5.8421718590033276E-015  0.51958274579695085     
 chl2c          41  0.39222487194494154        2.5582381488167241E-002  0.44304987499999998        4.4461397381241738E-006   7.6008724940596598E-006
 chl          41   2.2914451092779212E-015   5.8421718590033276E-015  0.39222487194494154     
 chl2c          42  0.60585150269798371        3.7949995630725070E-002  0.76234377499999995        7.7599744961070320E-006   1.1451290954883548E-005
 chl          42   3.5394885997970392E-015   5.8421718590033276E-015  0.60585150269798371     
 chl2c          43  0.25742179088133593        2.1185090152268007E-002  0.29539925000000000        7.7599744961070320E-006   7.7688920882466089E-006
 chl          43   1.5039023425811801E-015   5.8421718590033276E-015  0.25742179088133593     
 chl2c          44  0.36112651274660207        3.7536352708156646E-002  0.62417262500000004        7.7599744961070320E-006   3.3247768530552919E-006
 chl          44   2.1097631503082052E-015   5.8421718590033276E-015  0.36112651274660207     
 chl2c          45   4.6544927192009838E-002   4.6544927192009838E-002  0.37662252499999999        3.9731251782953771E-006   3.1566402171553640E-019
 chl          45   2.7192346382051865E-016   5.8421718590033276E-015   4.6544927192009838E-002
 chl2c          46   3.7083195475449568E-002   3.7083195475449568E-002  0.51876034999999998        7.7599744961070320E-006   9.0627619115092726E-016
 chl          46   2.1664640104859098E-016   5.8421718590033276E-015   3.7083195475449568E-002
 chl2c          47   3.7519784612651236E-002   3.7519784612651236E-002  0.61962282499999999        7.7599744961070320E-006   9.0714570345975337E-016
 chl          47   2.1919702981989712E-016   5.8421718590033276E-015   3.7519784612651236E-002
 chl2c          48  0.55177389584603431        3.7823212136301673E-002  0.71424949999999998        7.7599744961070320E-006   9.4113783527324400E-006
 chl          48   3.2235579268443346E-015   5.8421718590033276E-015  0.55177389584603431     
 chl2c          49   3.7152990741888416E-002   3.7152990741888416E-002  0.53276120000000005        7.7599744961070320E-006   9.0024262319183351E-016
 chl          49   2.1705415699007167E-016   5.8421718590033276E-015   3.7152990741888416E-002
 chl2c          50   2.1533072915600981E-002   2.1533072915600981E-002  0.38132569999999999        7.7599744961070320E-006   5.2958414413005875E-016
 chl          50   1.2579991262539078E-016   5.8421718590033276E-015   2.1533072915600981E-002
 chl2c          51   2.0700971146093840E-002   2.0700971146093840E-002  0.22275920000000002        7.7599744961070320E-006   5.3667089556191552E-016
 chl          51   1.2093863108374929E-016   5.8421718590033276E-015   2.0700971146093840E-002
 chl2c          52  0.47693228972530427        3.7581825176985564E-002  0.63698869999999996        7.7599744961070320E-006   7.3645409346848507E-006
 chl          52   2.7863204016831943E-015   5.8421718590033276E-015  0.47693228972530427     
 chl2c          53  0.58540715943044408        3.7925801262726190E-002  0.75269794999999995        7.7599744961070320E-006   1.0219673648767953E-005
 chl          53   3.4200492328836149E-015   5.8421718590033276E-015  0.58540715943044408     
 chl2c          54   3.7082433371327092E-002   3.7082433371327092E-002  0.51861124999999997        7.7599744961070320E-006   8.9089669414893598E-016
 chl          54   2.1664194870533302E-016   5.8421718590033276E-015   3.7082433371327092E-002
 chl2c          55  0.30936824305145533        3.7357235588660491E-002  0.57808280000000001        7.7599744961070320E-006   2.5822892246401326E-006
 chl          55   1.8073824436245139E-015   5.8421718590033276E-015  0.30936824305145533     
 chl2c          56   3.7507394187257688E-002   3.7507394187257688E-002  0.61626080000000005        7.7599744961070320E-006   7.6822460752959337E-016
 chl          56   2.1912464282534184E-016   5.8421718590033276E-015   3.7507394187257688E-002
 chl2c          57   3.7727617852646313E-002   3.7727617852646313E-002  0.68163462500000005        7.7599744961070320E-006   9.1028555003736406E-016
 chl          57   2.2041122732596184E-016   5.8421718590033276E-015   3.7727617852646313E-002
 chl2c          58  0.55673181644164049        3.7765358178394853E-002  0.69416802499999997        7.7599744961070320E-006   1.0910377537196122E-005
 chl          58   3.2525229510271581E-015   5.8421718590033276E-015  0.55673181644164049     
 chl2c          59  0.46517446987073668        3.7173699120809672E-002  0.53705127500000005        7.7599744961070320E-006   1.3485689521706422E-005
 chl          59   2.7176291974056089E-015   5.8421718590033276E-015  0.46517446987073668     
 chl2c          60  0.53988508219078291        3.7607757740906807E-002  0.64452155000000000        7.7599744961070320E-006   1.2902860375412138E-005
 chl          60   3.1541014342706905E-015   5.8421718590033276E-015  0.53988508219078291     
 chl2c          61   3.7805373434125003E-002   3.7805373434125003E-002  0.70794139999999994        7.7599744961070320E-006   9.0289129925513439E-016
 chl          61   2.2086548879595709E-016   5.8421718590033276E-015   3.7805373434125003E-002
 chl2c          62  0.58243904379198885        3.7956103087269030E-002  0.76481592499999995        7.7599744961070320E-006   9.4769353083476871E-006
 chl          62   3.4027089912263642E-015   5.8421718590033276E-015  0.58243904379198885     
 chl2c          63  0.54742340800264344        3.7855601011927406E-002  0.72597904999999996        7.7599744961070320E-006   8.6358317585173345E-006
 chl          63   3.1981416291927405E-015   5.8421718590033276E-015  0.54742340800264344     
 chl2c          64   2.5708982294816416E-002   2.5708982294816416E-002  0.48435739999999999        4.4461397381241738E-006   5.2182684524974490E-016
 chl          64   1.5019629288639125E-016   5.8421718590033276E-015   2.5708982294816416E-002
 chl2c          65  0.60578771718104862        3.7953597170552002E-002  0.76379975000000000        7.7599744961070320E-006   1.1361616166513159E-005
 chl          65   3.5391159538449891E-015   5.8421718590033276E-015  0.60578771718104862     
 chl2c          66   3.1840477731474713E-002   3.1840477731474713E-002  0.35213202499999996        5.3404768042247188E-006   2.5960056274838604E-019
 chl          66   1.8601754298004369E-016   5.8421718590033276E-015   3.1840477731474713E-002
 chl2c          67   3.7937587124568600E-002   3.7937587124568600E-002  0.75736760000000003        7.7599744961070320E-006   8.9986970731330287E-016
 chl          67   2.2163790389764165E-016   5.8421718590033276E-015   3.7937587124568600E-002
 chl2c          68  0.57916962812343842        3.7855407263856986E-002  0.72590779999999999        7.7599744961070320E-006   1.1116662898003945E-005
 chl          68   3.3836085030121743E-015   5.8421718590033276E-015  0.57916962812343842     
 chl2c          69   2.1732330561541505E-002   2.1732330561541505E-002  0.45524217500000003        7.7599744961070320E-006   5.2717537264610667E-016
 chl          69   1.2696401003719577E-016   5.8421718590033276E-015   2.1732330561541505E-002
 chl2c          70   3.2658010878182209E-002   3.2658010878182209E-002  0.48694062500000002        5.3404768042247188E-006   4.1446550713758601E-018
 chl          70   1.9079371212354065E-016   5.8421718590033276E-015   3.2658010878182209E-002
 chl2c          71   4.3481058864416305E-002   4.3481058864416305E-002  0.23986107500000001        3.9731251782953771E-006   4.2935007178822601E-009
 chl          71   2.5402381849736013E-016   5.8421718590033276E-015   4.3481058864416305E-002
 chl2c          72  0.44774828117973242        3.7549776402781669E-002  0.62790522500000001        7.7599744961070320E-006   6.0549047650540446E-006
 chl          72   2.6158224082253422E-015   5.8421718590033276E-015  0.44774828117973242     
 chl2c          73   3.1852614277819484E-002   3.1852614277819484E-002  0.35362212500000001        5.3404768042247188E-006   3.2601090978465187E-019
 chl          73   1.8608844676956459E-016   5.8421718590033276E-015   3.1852614277819484E-002
 chl2c          74  0.54324908018923057        3.7616827685877569E-002  0.64719590000000005        7.7599744961070320E-006   1.3123626093307754E-005
 chl          74   3.1737544887109649E-015   5.8421718590033276E-015  0.54324908018923057     
 chl2c          75   3.7826830779512356E-002   3.7826830779512356E-002  0.71554212500000003        7.7599744961070320E-006   7.6822460752959337E-016
 chl          75   2.2099084629534800E-016   5.8421718590033276E-015   3.7826830779512356E-002
 chl2c          76   3.7257729557919804E-002   3.7257729557919804E-002  0.55513977500000000        7.7599744961070320E-006   7.6822460752959337E-016
 chl          76   2.1766605915363556E-016   5.8421718590033276E-015   3.7257729557919804E-002
 chl2c          77  0.45786314699750774        3.7138172437479272E-002  0.52973029999999999        7.7599744961070320E-006   1.3094543456661878E-005
 chl          77   2.6749151926635437E-015   5.8421718590033276E-015  0.45786314699750774     
 chl2c          78   4.7515248899399322E-002   4.7515248899399322E-002  0.45117492500000000        3.9731251782953771E-006   4.2783209293029046E-018
 chl          78   2.7759224999360957E-016   5.8421718590033276E-015   4.7515248899399322E-002
 prod   1.1784903087000959E-009   5.4728655226897622        10.000000000000000     
 chl2c           1  0.60826437499999997        3.7477407714772232E-002  0.60826437499999997        0.0000000000000000        1.1341033772576331E-005
 chl           1   3.1977742597510118E-019   5.2572111588008290E-019  0.60826437499999997     
 chl2c           2  0.48302390000000001        3.2640259920490348E-002  0.48302390000000001        0.0000000000000000        2.2749846439488476E-019
 chl           2   2.5393586370474960E-019   5.2572111588008290E-019  0.48302390000000001     
 chl2c           3  0.75128689999999998        3.7922212503796585E-002  0.75128689999999998        0.0000000000000000        7.9601018600399142E-016
 chl           3   3.9496738741408822E-019   5.2572111588008290E-019  0.75128689999999998     
 chl2c           4  0.77318742499999993        3.7976509103863923E-002  0.77318742499999993        0.0000000000000000        6.9027170369087507E-006
 chl           4   4.0648095585544788E-019   5.2572111588008290E-019  0.77318742499999993     
 chl2c           5  0.48489679999999996        2.5710500362372445E-002  0.48489679999999996        0.0000000000000000        5.3109720890948233E-016
 chl           5   2.5492048678268137E-019   5.2572111588008290E-019  0.48489679999999996     
 chl2c           6  0.29222855000000003        3.1261039902252048E-002  0.29222855000000003        0.0000000000000000        5.4679049672708334E-008
 chl           6   1.5363071939801861E-019   5.2572111588008290E-019  0.29222855000000003     
 chl2c           7  0.22770740000000000        4.3064391842467263E-002  0.22770740000000000        0.0000000000000000        2.2199173654482703E-019
 chl           7   1.1971058842215240E-019   5.2572111588008290E-019  0.22770740000000000     
 chl2c           8  0.49578364999999996        4.7969800906495587E-002  0.49578364999999996        0.0000000000000000        2.8011590796163333E-009
 chl           8   2.6064393371310044E-019   5.2572111588008290E-019  0.49578364999999996     
 chl2c           9  0.28700202499999999        2.4803669054600401E-002  0.28700202499999999        0.0000000000000000        2.2934098914285575E-006
 chl           9   1.5088302484284345E-019   5.2572111588008290E-019  0.28700202499999999     
 chl2c          10  0.39094662499999999        2.5387016219684602E-002  0.39094662499999999        0.0000000000000000        5.3502340248834719E-016
 chl          10   2.0552889594455230E-019   5.2572111588008290E-019  0.39094662499999999     
 chl2c          11  0.49737575000000001        2.1820572217820047E-002  0.49737575000000001        0.0000000000000000        5.3565157775559552E-016
 chl          11   2.6148093430169315E-019   5.2572111588008290E-019  0.49737575000000001     
 chl2c          12  0.30768942500000002        4.5290941298723353E-002  0.30768942500000002        0.0000000000000000        1.0747075639527384E-009
 chl          12   1.6175882785550108E-019   5.2572111588008290E-019  0.30768942500000002     
 chl2c          13  0.75666275000000005        3.7935816987997487E-002  0.75666275000000005        0.0000000000000000        9.0008782971545945E-006
 chl          13   3.9779358527489223E-019   5.2572111588008290E-019  0.75666275000000005     
 chl2c          14  0.39804095000000000        4.6856526101924839E-002  0.39804095000000000        0.0000000000000000        3.2263045313124794E-018
 chl          14   2.0925853239996828E-019   5.2572111588008290E-019  0.39804095000000000     
 chl2c          15  0.25607262500000000        2.0954299823745293E-002  0.25607262500000000        0.0000000000000000        5.3743120641379426E-016
 chl          15   1.3462278616134201E-019   5.2572111588008290E-019  0.25607262500000000     
 chl2c          16  0.71433214999999994        3.7823443882273475E-002  0.71433214999999994        0.0000000000000000        1.0124628416135177E-005
 chl          16   3.7553949500701874E-019   5.2572111588008290E-019  0.71433214999999994     
 chl2c          17  0.62580860000000005        3.7542254757581245E-002  0.62580860000000005        0.0000000000000000        7.9601018600399142E-016
 chl          17   3.2900079551935247E-019   5.2572111588008290E-019  0.62580860000000005     
 chl2c          18  0.47925950000000000        2.5694475239060960E-002  0.47925950000000000        0.0000000000000000        5.3640425255645742E-016
 chl          18   2.5195683913613059E-019   5.2572111588008290E-019  0.47925950000000000     
 chl2c          19  0.63367130000000005        3.7570220750293731E-002  0.63367130000000005        0.0000000000000000        9.4061660129542984E-006
 chl          19   3.3313438293718279E-019   5.2572111588008290E-019  0.63367130000000005     
 chl2c          20  0.50678202500000002        3.7020645196759419E-002  0.50678202500000002        0.0000000000000000        6.7709483689012218E-006
 chl          20   2.6642601169096807E-019   5.2572111588008290E-019  0.50678202500000002     
 chl2c          21  0.71973185000000006        3.7838475073783531E-002  0.71973185000000006        0.0000000000000000        1.2501104925194997E-005
 chl          21   3.7837823131643649E-019   5.2572111588008290E-019  0.71973185000000006     
 chl2c          22  0.64616892500000001        3.7613353106285476E-002  0.64616892500000001        0.0000000000000000        1.0632218509895828E-006
 chl          22   3.3970464829803358E-019   5.2572111588008290E-019  0.64616892500000001     
 chl2c          23  0.41564179999999995        3.2286562315070731E-002  0.41564179999999995        0.0000000000000000        4.5535687710749834E-009
 chl          23   2.1851167090240624E-019   5.2572111588008290E-019  0.41564179999999995     
 chl2c          24  0.57597492500000003        3.7348402796863071E-002  0.57597492500000003        0.0000000000000000        9.0238576170949652E-016
 chl          24   3.0280218028994708E-019   5.2572111588008290E-019  0.57597492500000003     
 chl2c          25  0.31406487500000002        4.5426679235459781E-002  0.31406487500000002        0.0000000000000000        3.4515847656415888E-009
 chl          25   1.6511053654373876E-019   5.2572111588008290E-019  0.31406487500000002     
 chl2c          26  0.49427735000000000        4.7955660680174553E-002  0.49427735000000000        0.0000000000000000        2.2447718507668869E-019
 chl          26   2.5985203999625029E-019   5.2572111588008290E-019  0.49427735000000000     
 chl2c          27  0.30964730000000001        4.5333133499525620E-002  0.30964730000000001        0.0000000000000000        3.1983699389800354E-018
 chl          27   1.6278812408525481E-019   5.2572111588008290E-019  0.30964730000000001     
 chl2c          28  0.28776342500000002        3.1209236063453518E-002  0.28776342500000002        0.0000000000000000        3.1784873741500288E-018
 chl          28   1.5128330890047456E-019   5.2572111588008290E-019  0.28776342500000002     
 chl2c          29  0.68676297499999994        3.7743217595736761E-002  0.68676297499999994        0.0000000000000000        9.1230661918567195E-016
 chl          29   3.6104579756212544E-019   5.2572111588008290E-019  0.68676297499999994     
 chl2c          30  0.38930277499999999        2.5380056985171612E-002  0.38930277499999999        0.0000000000000000        5.3791955469423559E-016
 chl          30   2.0466468928821284E-019   5.2572111588008290E-019  0.38930277499999999     
 chl2c          31  0.63559385000000002        3.7576959810037038E-002  0.63559385000000002        0.0000000000000000        9.1599860739739143E-016
 chl          31   3.3414510806851805E-019   5.2572111588008290E-019  0.63559385000000002     
 chl2c          32  0.24722667500000001        2.0893126428578448E-002  0.24722667500000001        0.0000000000000000        5.3817072096165230E-016
 chl          32   1.2997228345632260E-019   5.2572111588008290E-019  0.24722667500000001     
 chl2c          33  0.60343137499999999        3.7458922634011876E-002  0.60343137499999999        0.0000000000000000        9.8832649371797472E-006
 chl          33   3.1723661582205275E-019   5.2572111588008290E-019  0.60343137499999999     
 chl2c          34  0.38241020000000003        2.5350269098008315E-002  0.38241020000000003        0.0000000000000000        5.3055991886950415E-016
 chl          34   2.0104111706792570E-019   5.2572111588008290E-019  0.38241020000000003     
 chl2c          35  0.49574644999999995        2.5740370148566064E-002  0.49574644999999995        0.0000000000000000        5.3192362657825815E-016
 chl          35   2.6062437688758971E-019   5.2572111588008290E-019  0.49574644999999995     
 chl2c          36  0.69587337500000002        3.7770393924465726E-002  0.69587337500000002        0.0000000000000000        7.9601018600399142E-016
 chl          36   3.6583532721623939E-019   5.2572111588008290E-019  0.69587337500000002     
 chl2c          37  0.33194060000000003        2.1353674699533250E-002  0.33194060000000003        0.0000000000000000        5.2996973047479039E-016
 chl          37   1.7450818263790426E-019   5.2572111588008290E-019  0.33194060000000003     
 chl2c          38  0.38455722500000000        2.1543295686358745E-002  0.38455722500000000        0.0000000000000000        5.3824108419253179E-016
 chl          38   2.0216985344674812E-019   5.2572111588008290E-019  0.38455722500000000     
 chl2c          39  0.47091117500000002        2.5670077108751441E-002  0.47091117500000002        0.0000000000000000        5.3451833703965811E-016
 chl          39   2.4756794840140101E-019   5.2572111588008290E-019  0.47091117500000002     
 chl2c          40  0.66875547499999999        3.7687445774703773E-002  0.66875547499999999        0.0000000000000000        1.0112953464773476E-005
 chl          40   3.5157887456791485E-019   5.2572111588008290E-019  0.66875547499999999     
 chl2c          41  0.44304987499999998        2.5582381488167241E-002  0.44304987499999998        0.0000000000000000        7.4994087553735884E-006
 chl          41   2.3292067467553125E-019   5.2572111588008290E-019  0.44304987499999998     
 chl2c          42  0.76234377499999995        3.7949995630725070E-002  0.76234377499999995        0.0000000000000000        1.2108672252118759E-005
 chl          42   4.0078022007723483E-019   5.2572111588008290E-019  0.76234377499999995     
 chl2c          43  0.29539925000000000        2.1185090152268007E-002  0.29539925000000000        0.0000000000000000        7.1248259657096705E-006
 chl          43   1.5529762334013957E-019   5.2572111588008290E-019  0.29539925000000000     
 chl2c          44  0.62417262500000004        3.7536352708156646E-002  0.62417262500000004        0.0000000000000000        5.6271207242640753E-006
 chl          44   3.2814072891680056E-019   5.2572111588008290E-019  0.62417262500000004     
 chl2c          45  0.37662252499999999        4.6544927192009838E-002  0.37662252499999999        0.0000000000000000        2.9897103355445972E-019
 chl          45   1.9799841410857440E-019   5.2572111588008290E-019  0.37662252499999999     
 chl2c          46  0.51876034999999998        3.7083195475449568E-002  0.51876034999999998        0.0000000000000000        9.1595312902587970E-016
 chl          46   2.7272327007634235E-019   5.2572111588008290E-019  0.51876034999999998     
 chl2c          47  0.61962282499999999        3.7519784612651236E-002  0.61962282499999999        0.0000000000000000        9.1668591173295589E-016
 chl          47   3.2574880298376933E-019   5.2572111588008290E-019  0.61962282499999999     
 chl2c          48  0.71424949999999998        3.7823212136301673E-002  0.71424949999999998        0.0000000000000000        1.0789361367119694E-005
 chl          48   3.7549604415679127E-019   5.2572111588008290E-019  0.71424949999999998     
 chl2c          49  0.53276120000000005        3.7152990741888416E-002  0.53276120000000005        0.0000000000000000        9.1086211319701461E-016
 chl          49   2.8008381256161205E-019   5.2572111588008290E-019  0.53276120000000005     
 chl2c          50  0.38132569999999999        2.1533072915600981E-002  0.38132569999999999        0.0000000000000000        5.3323885529455048E-016
 chl          50   2.0047097251775371E-019   5.2572111588008290E-019  0.38132569999999999     
 chl2c          51  0.22275920000000002        2.0700971146093840E-002  0.22275920000000002        0.0000000000000000        5.3916023756711809E-016
 chl          51   1.1710921519655457E-019   5.2572111588008290E-019  0.22275920000000002     
 chl2c          52  0.63698869999999996        3.7581825176985564E-002  0.63698869999999996        0.0000000000000000        8.9261178912714323E-006
 chl          52   3.3487841016700335E-019   5.2572111588008290E-019  0.63698869999999996     
 chl2c          53  0.75269794999999995        3.7925801262726190E-002  0.75269794999999995        0.0000000000000000        1.0837540601556364E-005
 chl          53   3.9570920619465081E-019   5.2572111588008290E-019  0.75269794999999995     
 chl2c          54  0.51861124999999997        3.7082433371327092E-002  0.51861124999999997        0.0000000000000000        9.0295448784419184E-016
 chl          54   2.7264488505796465E-019   5.2572111588008290E-019  0.51861124999999997     
 chl2c          55  0.57808280000000001        3.7357235588660491E-002  0.57808280000000001        0.0000000000000000        3.2854640008605424E-007
 chl          55   3.0391033468708278E-019   5.2572111588008290E-019  0.57808280000000001     
 chl2c          56  0.61626080000000005        3.7507394187257688E-002  0.61626080000000005        0.0000000000000000        7.9601018600399142E-016
 chl          56   3.2398131544915264E-019   5.2572111588008290E-019  0.61626080000000005     
 chl2c          57  0.68163462500000005        3.7727617852646313E-002  0.68163462500000005        0.0000000000000000        9.1933015872834445E-016
 chl          57   3.5834971567750189E-019   5.2572111588008290E-019  0.68163462500000005     
 chl2c          58  0.69416802499999997        3.7765358178394853E-002  0.69416802499999997        0.0000000000000000        1.0286404025655110E-005
 chl          58   3.6493878871127329E-019   5.2572111588008290E-019  0.69416802499999997     
 chl2c          59  0.53705127500000005        3.7173699120809672E-002  0.53705127500000005        0.0000000000000000        1.3117518109202219E-005
 chl          59   2.8233919557782128E-019   5.2572111588008290E-019  0.53705127500000005     
 chl2c          60  0.64452155000000000        3.7607757740906807E-002  0.64452155000000000        0.0000000000000000        1.2182162676289844E-005
 chl          60   3.3883858847476066E-019   5.2572111588008290E-019  0.64452155000000000     
 chl2c          61  0.70794139999999994        3.7805373434125003E-002  0.70794139999999994        0.0000000000000000        9.1309836123683735E-016
 chl          61   3.7217974278570808E-019   5.2572111588008290E-019  0.70794139999999994     
 chl2c          62  0.76481592499999995        3.7956103087269030E-002  0.76481592499999995        0.0000000000000000        1.0792762108780237E-005
 chl          62   4.0207988153385775E-019   5.2572111588008290E-019  0.76481592499999995     
 chl2c          63  0.72597904999999996        3.7855601011927406E-002  0.72597904999999996        0.0000000000000000        6.9036835169962475E-006
 chl          63   3.8166251627156245E-019   5.2572111588008290E-019  0.72597904999999996     
 chl2c          64  0.48435739999999999        2.5708982294816416E-002  0.48435739999999999        0.0000000000000000        5.2673111634727925E-016
 chl          64   2.5463691281277564E-019   5.2572111588008290E-019  0.48435739999999999     
 chl2c          65  0.76379975000000000        3.7953597170552002E-002  0.76379975000000000        0.0000000000000000        1.1341825269536733E-005
 chl          65   4.0154565687892836E-019   5.2572111588008290E-019  0.76379975000000000     
 chl2c          66  0.35213202499999996        3.1840477731474713E-002  0.35213202499999996        0.0000000000000000        2.4587100676603579E-019
 chl          66   1.8512324112011324E-019   5.2572111588008290E-019  0.35213202499999996     
 chl2c          67  0.75736760000000003        3.7937587124568600E-002  0.75736760000000003        0.0000000000000000        9.1054709486723186E-016
 chl          67   3.9816413980342027E-019   5.2572111588008290E-019  0.75736760000000003     
 chl2c          68  0.72590779999999999        3.7855407263856986E-002  0.72590779999999999        0.0000000000000000        1.0685238096658145E-005
 chl          68   3.8162505864205605E-019   5.2572111588008290E-019  0.72590779999999999     
 chl2c          69  0.45524217500000003        2.1732330561541505E-002  0.45524217500000003        0.0000000000000000        5.3122122741706494E-016
 chl          69   2.3933042423667598E-019   5.2572111588008290E-019  0.45524217500000003     
 chl2c          70  0.48694062500000002        3.2658010878182209E-002  0.48694062500000002        0.0000000000000000        3.9300540094363385E-018
 chl          70   2.5599496874234498E-019   5.2572111588008290E-019  0.48694062500000002     
 chl2c          71  0.23986107500000001        4.3481058864416305E-002  0.23986107500000001        0.0000000000000000        3.9139601920740597E-009
 chl          71   1.2610003200519626E-019   5.2572111588008290E-019  0.23986107500000001     
 chl2c          72  0.62790522500000001        3.7549776402781669E-002  0.62790522500000001        0.0000000000000000        7.8890652596164078E-006
 chl          72   3.3010303555393453E-019   5.2572111588008290E-019  0.62790522500000001     
 chl2c          73  0.35362212500000001        3.1852614277819484E-002  0.35362212500000001        0.0000000000000000        3.0877106278382397E-019
 chl          73   1.8590661815488615E-019   5.2572111588008290E-019  0.35362212500000001     
 chl2c          74  0.64719590000000005        3.7616827685877569E-002  0.64719590000000005        0.0000000000000000        1.2388027750721882E-005
 chl          74   3.4024455074101458E-019   5.2572111588008290E-019  0.64719590000000005     
 chl2c          75  0.71554212500000003        3.7826830779512356E-002  0.71554212500000003        0.0000000000000000        7.9601018600399142E-016
 chl          75   3.7617560441420579E-019   5.2572111588008290E-019  0.71554212500000003     
 chl2c          76  0.55513977500000000        3.7257729557919804E-002  0.55513977500000000        0.0000000000000000        7.9601018600399142E-016
 chl          76   2.9184870198241812E-019   5.2572111588008290E-019  0.55513977500000000     
 chl2c          77  0.52973029999999999        3.7138172437479272E-002  0.52973029999999999        0.0000000000000000        1.2693204277669784E-005
 chl          77   2.7849040443149108E-019   5.2572111588008290E-019  0.52973029999999999     
 chl2c          78  0.45117492500000000        4.7515248899399322E-002  0.45117492500000000        0.0000000000000000        4.0568429265779504E-018
 chl          78   2.3719218502811272E-019   5.2572111588008290E-019  0.45117492500000000     
 prod   1.1161353976876851E-009   0.0000000000000000        10.000000000000000     
 chl2c           1  0.60826437499999997        3.7477407714772232E-002  0.60826437499999997        0.0000000000000000        1.1192030307927382E-005
 chl           1   6.5780485354017782E-024   1.0814456354445842E-023  0.60826437499999997     
 chl2c           2  0.48302390000000001        3.2640259920490348E-002  0.48302390000000001        0.0000000000000000        2.1479298199401083E-019
 chl           2   5.2236408847042126E-024   1.0814456354445842E-023  0.48302390000000001     
 chl2c           3  0.75128689999999998        3.7922212503796585E-002  0.75128689999999998        0.0000000000000000        8.1690672048899111E-016
 chl           3   8.1247593897169170E-024   1.0814456354445842E-023  0.75128689999999998     
 chl2c           4  0.77318742499999993        3.7976509103863923E-002  0.77318742499999993        0.0000000000000000        4.7553030456848769E-006
 chl           4   8.3616016614688665E-024   1.0814456354445842E-023  0.77318742499999993     
 chl2c           5  0.48489679999999996        2.5710500362372445E-002  0.48489679999999996        0.0000000000000000        5.3399193265042175E-016
 chl           5   5.2438952800104543E-024   1.0814456354445842E-023  0.48489679999999996     
 chl2c           6  0.29222855000000003        3.1261039902252048E-002  0.29222855000000003        0.0000000000000000        5.3327713721145995E-008
 chl           6   3.1602928994979947E-024   1.0814456354445842E-023  0.29222855000000003     
 chl2c           7  0.22770740000000000        4.3064391842467263E-002  0.22770740000000000        0.0000000000000000        2.0959368046429767E-019
 chl           7   2.4625317388843411E-024   1.0814456354445842E-023  0.22770740000000000     
 chl2c           8  0.49578364999999996        4.7969800906495587E-002  0.49578364999999996        0.0000000000000000        1.9975383851263227E-009
 chl           8   5.3616306441728525E-024   1.0814456354445842E-023  0.49578364999999996     
 chl2c           9  0.28700202499999999        2.4803669054600401E-002  0.28700202499999999        0.0000000000000000        4.2584581627260748E-007
 chl           9   3.1037708730000742E-024   1.0814456354445842E-023  0.28700202499999999     
 chl2c          10  0.39094662499999999        2.5387016219684602E-002  0.39094662499999999        0.0000000000000000        5.3736846894706699E-016
 chl          10   4.2278752129804057E-024   1.0814456354445842E-023  0.39094662499999999     
 chl2c          11  0.49737575000000001        2.1820572217820047E-002  0.49737575000000001        0.0000000000000000        5.3790816168129159E-016
 chl          11   5.3788483401347667E-024   1.0814456354445842E-023  0.49737575000000001     
 chl2c          12  0.30768942500000002        4.5290941298723353E-002  0.30768942500000002        0.0000000000000000        1.7300931059166630E-009
 chl          12   3.3274938573870374E-024   1.0814456354445842E-023  0.30768942500000002     
 chl2c          13  0.75666275000000005        3.7935816987997487E-002  0.75666275000000005        0.0000000000000000        1.0343893794961030E-005
 chl          13   8.1828962849099652E-024   1.0814456354445842E-023  0.75666275000000005     
 chl2c          14  0.39804095000000000        4.6856526101924839E-002  0.39804095000000000        0.0000000000000000        3.0498130958054594E-018
 chl          14   4.3045964810571598E-024   1.0814456354445842E-023  0.39804095000000000     
 chl2c          15  0.25607262500000000        2.0954299823745293E-002  0.25607262500000000        0.0000000000000000        5.3943639735259602E-016
 chl          15   2.7692862266308770E-024   1.0814456354445842E-023  0.25607262500000000     
 chl2c          16  0.71433214999999994        3.7823443882273475E-002  0.71433214999999994        0.0000000000000000        1.0670147245559806E-005
 chl          16   7.7251138587524603E-024   1.0814456354445842E-023  0.71433214999999994     
 chl2c          17  0.62580860000000005        3.7542254757581245E-002  0.62580860000000005        0.0000000000000000        8.1690672048899111E-016
 chl          17   6.7677797909368562E-024   1.0814456354445842E-023  0.62580860000000005     
 chl2c          18  0.47925950000000000        2.5694475239060960E-002  0.47925950000000000        0.0000000000000000        5.3855463795775705E-016
 chl          18   5.1829309452035373E-024   1.0814456354445842E-023  0.47925950000000000     
 chl2c          19  0.63367130000000005        3.7570220750293731E-002  0.63367130000000005        0.0000000000000000        7.8630034275168279E-006
 chl          19   6.8528106169149583E-024   1.0814456354445842E-023  0.63367130000000005     
 chl2c          20  0.50678202500000002        3.7020645196759419E-002  0.50678202500000002        0.0000000000000000        8.6642700290549028E-006
 chl          20   5.4805720905801819E-024   1.0814456354445842E-023  0.50678202500000002     
 chl2c          21  0.71973185000000006        3.7838475073783531E-002  0.71973185000000006        0.0000000000000000        1.1498686183677809E-005
 chl          21   7.7835086787295627E-024   1.0814456354445842E-023  0.71973185000000006     
 chl2c          22  0.64616892500000001        3.7613353106285476E-002  0.64616892500000001        0.0000000000000000        8.1690672048899111E-016
 chl          22   6.9879656370116889E-024   1.0814456354445842E-023  0.64616892500000001     
 chl2c          23  0.41564179999999995        3.2286562315070731E-002  0.41564179999999995        0.0000000000000000        4.1992256614274018E-009
 chl          23   4.4949401051833068E-024   1.0814456354445842E-023  0.41564179999999995     
 chl2c          24  0.57597492500000003        3.7348402796863071E-002  0.57597492500000003        0.0000000000000000        9.1112373655286739E-016
 chl          24   6.2288556876677176E-024   1.0814456354445842E-023  0.57597492500000003     
 chl2c          25  0.31406487500000002        4.5426679235459781E-002  0.31406487500000002        0.0000000000000000        3.1952752625247469E-009
 chl          25   3.3964408831519893E-024   1.0814456354445842E-023  0.31406487500000002     
 chl2c          26  0.49427735000000000        4.7955660680174553E-002  0.49427735000000000        0.0000000000000000        2.1194037213813612E-019
 chl          26   5.3453408285661518E-024   1.0814456354445842E-023  0.49427735000000000     
 chl2c          27  0.30964730000000001        4.5333133499525620E-002  0.30964730000000001        0.0000000000000000        3.0233994048315722E-018
 chl          27   3.3486672111219982E-024   1.0814456354445842E-023  0.30964730000000001     
 chl2c          28  0.28776342500000002        3.1209236063453518E-002  0.28776342500000002        0.0000000000000000        3.0045994249099887E-018
 chl          28   3.1120050000683496E-024   1.0814456354445842E-023  0.28776342500000002     
 chl2c          29  0.68676297499999994        3.7743217595736761E-002  0.68676297499999994        0.0000000000000000        9.1971879971882503E-016
 chl          29   7.4269682189868804E-024   1.0814456354445842E-023  0.68676297499999994     
 chl2c          30  0.38930277499999999        2.5380056985171612E-002  0.38930277499999999        0.0000000000000000        5.3985558979311114E-016
 chl          30   4.2100978689021500E-024   1.0814456354445842E-023  0.38930277499999999     
 chl2c          31  0.63559385000000002        3.7576959810037038E-002  0.63559385000000002        0.0000000000000000        9.2291084769123890E-016
 chl          31   6.8736019499791978E-024   1.0814456354445842E-023  0.63559385000000002     
 chl2c          32  0.24722667500000001        2.0893126428578448E-002  0.24722667500000001        0.0000000000000000        5.4007116202273945E-016
 chl          32   2.6736220864422668E-024   1.0814456354445842E-023  0.24722667500000001     
 chl2c          33  0.60343137499999999        3.7458922634011876E-002  0.60343137499999999        0.0000000000000000        7.7241815181757642E-006
 chl          33   6.5257822678407419E-024   1.0814456354445842E-023  0.60343137499999999     
 chl2c          34  0.38241020000000003        2.5350269098008315E-002  0.38241020000000003        0.0000000000000000        5.3352938277553011E-016
 chl          34   4.1355584173949053E-024   1.0814456354445842E-023  0.38241020000000003     
 chl2c          35  0.49574644999999995        2.5740370148566064E-002  0.49574644999999995        0.0000000000000000        5.3470315941120202E-016
 chl          35   5.3612283463964670E-024   1.0814456354445842E-023  0.49574644999999995     
 chl2c          36  0.69587337500000002        3.7770393924465726E-002  0.69587337500000002        0.0000000000000000        8.1690672048899111E-016
 chl          36   7.5254922421584248E-024   1.0814456354445842E-023  0.69587337500000002     
 chl2c          37  0.33194060000000003        2.1353674699533250E-002  0.33194060000000003        0.0000000000000000        5.3302115457131772E-016
 chl          37   3.5897571309685655E-024   1.0814456354445842E-023  0.33194060000000003     
 chl2c          38  0.38455722500000000        2.1543295686358745E-002  0.38455722500000000        0.0000000000000000        5.4013155069162786E-016
 chl          38   4.1587773255493094E-024   1.0814456354445842E-023  0.38455722500000000     
 chl2c          39  0.47091117500000002        2.5670077108751441E-002  0.47091117500000002        0.0000000000000000        5.3693444253279247E-016
 chl          39   5.0926483488583082E-024   1.0814456354445842E-023  0.47091117500000002     
 chl2c          40  0.66875547499999999        3.7687445774703773E-002  0.66875547499999999        0.0000000000000000        1.0663585492486128E-005
 chl          40   7.2322268961841974E-024   1.0814456354445842E-023  0.66875547499999999     
 chl2c          41  0.44304987499999998        2.5582381488167241E-002  0.44304987499999998        0.0000000000000000        7.2846034963934058E-006
 chl          41   4.7913435360301860E-024   1.0814456354445842E-023  0.44304987499999998     
 chl2c          42  0.76234377499999995        3.7949995630725070E-002  0.76234377499999995        0.0000000000000000        1.2277901843850774E-005
 chl          42   8.2443334818209804E-024   1.0814456354445842E-023  0.76234377499999995     
 chl2c          43  0.29539925000000000        2.1185090152268007E-002  0.29539925000000000        0.0000000000000000        6.0501138441819661E-006
 chl          43   3.1945822962610360E-024   1.0814456354445842E-023  0.29539925000000000     
 chl2c          44  0.62417262500000004        3.7536352708156646E-002  0.62417262500000004        0.0000000000000000        7.6857978362045563E-006
 chl          44   6.7500876107023915E-024   1.0814456354445842E-023  0.62417262500000004     
 chl2c          45  0.37662252499999999        4.6544927192009838E-002  0.37662252499999999        0.0000000000000000        2.8227594977556376E-019
 chl          45   4.0729678587136881E-024   1.0814456354445842E-023  0.37662252499999999     
 chl2c          46  0.51876034999999998        3.7083195475449568E-002  0.51876034999999998        0.0000000000000000        9.2287154901796093E-016
 chl          46   5.6101111634920485E-024   1.0814456354445842E-023  0.51876034999999998     
 chl2c          47  0.61962282499999999        3.7519784612651236E-002  0.61962282499999999        0.0000000000000000        9.2350469504782811E-016
 chl          47   6.7008839971809344E-024   1.0814456354445842E-023  0.61962282499999999     
 chl2c          48  0.71424949999999998        3.7823212136301673E-002  0.71424949999999998        0.0000000000000000        1.1546315979263880E-005
 chl          48   7.7242200439347646E-024   1.0814456354445842E-023  0.71424949999999998     
 chl2c          49  0.53276120000000005        3.7152990741888416E-002  0.53276120000000005        0.0000000000000000        9.1846893646694297E-016
 chl          49   5.7615227447421926E-024   1.0814456354445842E-023  0.53276120000000005     
 chl2c          50  0.38132569999999999        2.1533072915600981E-002  0.38132569999999999        0.0000000000000000        5.3583449778355778E-016
 chl          50   4.1238301394785087E-024   1.0814456354445842E-023  0.38132569999999999     
 chl2c          51  0.22275920000000002        2.0700971146093840E-002  0.22275920000000002        0.0000000000000000        5.4092029347609583E-016
 chl          51   2.4090196459512723E-024   1.0814456354445842E-023  0.22275920000000002     
 chl2c          52  0.63698869999999996        3.7581825176985564E-002  0.63698869999999996        0.0000000000000000        9.9354133883831414E-006
 chl          52   6.8886864944251949E-024   1.0814456354445842E-023  0.63698869999999996     
 chl2c          53  0.75269794999999995        3.7925801262726190E-002  0.75269794999999995        0.0000000000000000        1.1037395112489792E-005
 chl          53   8.1400191283558587E-024   1.0814456354445842E-023  0.75269794999999995     
 chl2c          54  0.51861124999999997        3.7082433371327092E-002  0.51861124999999997        0.0000000000000000        9.1161715985586814E-016
 chl          54   5.6084987280496010E-024   1.0814456354445842E-023  0.51861124999999997     
 chl2c          55  0.57808280000000001        3.7357235588660491E-002  0.57808280000000001        0.0000000000000000        9.2509002592884310E-016
 chl          55   6.2516512098558450E-024   1.0814456354445842E-023  0.57808280000000001     
 chl2c          56  0.61626080000000005        3.7507394187257688E-002  0.61626080000000005        0.0000000000000000        8.1690672048899111E-016
 chl          56   6.6645255245558790E-024   1.0814456354445842E-023  0.61626080000000005     
 chl2c          57  0.68163462500000005        3.7727617852646313E-002  0.68163462500000005        0.0000000000000000        9.2578826237274246E-016
 chl          57   7.3715079017415594E-024   1.0814456354445842E-023  0.68163462500000005     
 chl2c          58  0.69416802499999997        3.7765358178394853E-002  0.69416802499999997        0.0000000000000000        9.1536204811255506E-006
 chl          58   7.5070498090143689E-024   1.0814456354445842E-023  0.69416802499999997     
 chl2c          59  0.53705127500000005        3.7173699120809672E-002  0.53705127500000005        0.0000000000000000        1.2712186364680462E-005
 chl          59   5.8079175735869915E-024   1.0814456354445842E-023  0.53705127500000005     
 chl2c          60  0.64452155000000000        3.7607757740906807E-002  0.64452155000000000        0.0000000000000000        1.1065560705480455E-005
 chl          60   6.9701501719747832E-024   1.0814456354445842E-023  0.64452155000000000     
 chl2c          61  0.70794139999999994        3.7805373434125003E-002  0.70794139999999994        0.0000000000000000        9.2040362702497051E-016
 chl          61   7.6560013718052844E-024   1.0814456354445842E-023  0.70794139999999994     
 chl2c          62  0.76481592499999995        3.7956103087269030E-002  0.76481592499999995        0.0000000000000000        1.1499340281271986E-005
 chl          62   8.2710684400976245E-024   1.0814456354445842E-023  0.76481592499999995     
 chl2c          63  0.72597904999999996        3.7855601011927406E-002  0.72597904999999996        0.0000000000000000        4.7563883345340426E-006
 chl          63   7.8510687504670557E-024   1.0814456354445842E-023  0.72597904999999996     
 chl2c          64  0.48435739999999999        2.5708982294816416E-002  0.48435739999999999        0.0000000000000000        5.3022965062923796E-016
 chl          64   5.2380619622528662E-024   1.0814456354445842E-023  0.48435739999999999     
 chl2c          65  0.76379975000000000        3.7953597170552002E-002  0.76379975000000000        0.0000000000000000        1.1204665312069786E-005
 chl          65   8.2600790599116455E-024   1.0814456354445842E-023  0.76379975000000000     
 chl2c          66  0.35213202499999996        3.1840477731474713E-002  0.35213202499999996        0.0000000000000000        2.3213987501199059E-019
 chl          66   3.8081164153651313E-024   1.0814456354445842E-023  0.35213202499999996     
 chl2c          67  0.75736760000000003        3.7937587124568600E-002  0.75736760000000003        0.0000000000000000        9.1819629374555308E-016
 chl          67   8.1905188544713970E-024   1.0814456354445842E-023  0.75736760000000003     
 chl2c          68  0.72590779999999999        3.7855407263856986E-002  0.72590779999999999        0.0000000000000000        9.8026857534990638E-006
 chl          68   7.8502982204518010E-024   1.0814456354445842E-023  0.72590779999999999     
 chl2c          69  0.45524217500000003        2.1732330561541505E-002  0.45524217500000003        0.0000000000000000        5.3409868253809289E-016
 chl          69   4.9231966322404960E-024   1.0814456354445842E-023  0.45524217500000003     
 chl2c          70  0.48694062500000002        3.2658010878182209E-002  0.48694062500000002        0.0000000000000000        3.7152885178898824E-018
 chl          70   5.2659981362690802E-024   1.0814456354445842E-023  0.48694062500000002     
 chl2c          71  0.23986107500000001        4.3481058864416305E-002  0.23986107500000001        0.0000000000000000        3.5242471936609213E-009
 chl          71   2.5939671267179608E-024   1.0814456354445842E-023  0.23986107500000001     
 chl2c          72  0.62790522500000001        3.7549776402781669E-002  0.62790522500000001        0.0000000000000000        9.2211652955411150E-006
 chl          72   6.7904536504909956E-024   1.0814456354445842E-023  0.62790522500000001     
 chl2c          73  0.35362212500000001        3.1852614277819484E-002  0.35362212500000001        0.0000000000000000        2.9152901725638257E-019
 chl          73   3.8242310367788917E-024   1.0814456354445842E-023  0.35362212500000001     
 chl2c          74  0.64719590000000005        3.7616827685877569E-002  0.64719590000000005        0.0000000000000000        1.1274410517949010E-005
 chl          74   6.9990718133262967E-024   1.0814456354445842E-023  0.64719590000000005     
 chl2c          75  0.71554212500000003        3.7826830779512356E-002  0.71554212500000003        0.0000000000000000        8.1690672048899111E-016
 chl          75   7.7381990805799318E-024   1.0814456354445842E-023  0.71554212500000003     
 chl2c          76  0.55513977500000000        3.7257729557919804E-002  0.55513977500000000        0.0000000000000000        8.1690672048899111E-016
 chl          76   6.0035348673543851E-024   1.0814456354445842E-023  0.55513977500000000     
 chl2c          77  0.52973029999999999        3.7138172437479272E-002  0.52973029999999999        0.0000000000000000        1.2072694886624366E-005
 chl          77   5.7287452089775023E-024   1.0814456354445842E-023  0.52973029999999999     
 chl2c          78  0.45117492500000000        4.7515248899399322E-002  0.45117492500000000        0.0000000000000000        3.8351904203076646E-018
 chl          78   4.8792115346328758E-024   1.0814456354445842E-023  0.45117492500000000     
 prod   1.0537764385421954E-009   0.0000000000000000        10.000000000000000     
 chl2c           1  0.60826437499999997        3.7477407714772232E-002  0.60826437499999997        0.0000000000000000        1.0666497393740154E-005
 chl           1   7.0801522248855657E-027   1.1639925854420731E-026  0.60826437499999997     
 chl2c           2  0.48302390000000001        3.2640259920490348E-002  0.48302390000000001        0.0000000000000000        2.0621037739499495E-019
 chl           2   5.6223623819131336E-027   1.1639925854420731E-026  0.48302390000000001     
 chl2c           3  0.75128689999999998        3.7922212503796585E-002  0.75128689999999998        0.0000000000000000        8.5758756505924872E-016
 chl           3   8.7449238113976018E-027   1.1639925854420731E-026  0.75128689999999998     
 chl2c           4  0.77318742499999993        3.7976509103863923E-002  0.77318742499999993        0.0000000000000000        7.5613802368929595E-007
 chl           4   8.9998442985704884E-027   1.1639925854420731E-026  0.77318742499999993     
 chl2c           5  0.48489679999999996        2.5710500362372445E-002  0.48489679999999996        0.0000000000000000        5.3790861552775588E-016
 chl           5   5.6441627990458777E-027   1.1639925854420731E-026  0.48489679999999996     
 chl2c           6  0.29222855000000003        3.1261039902252048E-002  0.29222855000000003        0.0000000000000000        4.7935595496998388E-008
 chl           6   3.4015186545448815E-027   1.1639925854420731E-026  0.29222855000000003     
 chl2c           7  0.22770740000000000        4.3064391842467263E-002  0.22770740000000000        0.0000000000000000        2.0121875141773746E-019
 chl           7   2.6504972525029230E-027   1.1639925854420731E-026  0.22770740000000000     
 chl2c           8  0.49578364999999996        4.7969800906495587E-002  0.49578364999999996        0.0000000000000000        4.8938786278671563E-010
 chl           8   5.7708849258340783E-027   1.1639925854420731E-026  0.49578364999999996     
 chl2c           9  0.28700202499999999        2.4803669054600401E-002  0.28700202499999999        0.0000000000000000        5.4052556024547600E-016
 chl           9   3.3406822910686045E-027   1.1639925854420731E-026  0.28700202499999999     
 chl2c          10  0.39094662499999999        2.5387016219684602E-002  0.39094662499999999        0.0000000000000000        5.4053464916015707E-016
 chl          10   4.5505897280360258E-027   1.1639925854420731E-026  0.39094662499999999     
 chl2c          11  0.49737575000000001        2.1820572217820047E-002  0.49737575000000001        0.0000000000000000        5.4095393666628192E-016
 chl          11   5.7894168517869017E-027   1.1639925854420731E-026  0.49737575000000001     
 chl2c          12  0.30768942500000002        4.5290941298723353E-002  0.30768942500000002        0.0000000000000000        2.4160676661704376E-009
 chl          12   3.5814820931893488E-027   1.1639925854420731E-026  0.30768942500000002     
 chl2c          13  0.75666275000000005        3.7935816987997487E-002  0.75666275000000005        0.0000000000000000        1.1337112417627472E-005
 chl          13   8.8074983068020897E-027   1.1639925854420731E-026  0.75666275000000005     
 chl2c          14  0.39804095000000000        4.6856526101924839E-002  0.39804095000000000        0.0000000000000000        2.8606744098458541E-018
 chl          14   4.6331671450231895E-027   1.1639925854420731E-026  0.39804095000000000     
 chl2c          15  0.25607262500000000        2.0954299823745293E-002  0.25607262500000000        0.0000000000000000        5.4214072550282254E-016
 chl          15   2.9806663683468842E-027   1.1639925854420731E-026  0.25607262500000000     
 chl2c          16  0.71433214999999994        3.7823443882273475E-002  0.71433214999999994        0.0000000000000000        1.0906815045800474E-005
 chl          16   8.3147732614289470E-027   1.1639925854420731E-026  0.71433214999999994     
 chl2c          17  0.62580860000000005        3.7542254757581245E-002  0.62580860000000005        0.0000000000000000        8.5758756505924872E-016
 chl          17   7.2843657030588423E-027   1.1639925854420731E-026  0.62580860000000005     
 chl2c          18  0.47925950000000000        2.5694475239060960E-002  0.47925950000000000        0.0000000000000000        5.4145605446680097E-016
 chl          18   5.5785450450267519E-027   1.1639925854420731E-026  0.47925950000000000     
 chl2c          19  0.63367130000000005        3.7570220750293731E-002  0.63367130000000005        0.0000000000000000        3.9962046344665835E-006
 chl          19   7.3758869480743963E-027   1.1639925854420731E-026  0.63367130000000005     
 chl2c          20  0.50678202500000002        3.7020645196759419E-002  0.50678202500000002        0.0000000000000000        1.0659137978268280E-005
 chl          20   5.8989051953531936E-027   1.1639925854420731E-026  0.50678202500000002     
 chl2c          21  0.71973185000000006        3.7838475073783531E-002  0.71973185000000006        0.0000000000000000        8.4732739402838295E-006
 chl          21   8.3776253690650632E-027   1.1639925854420731E-026  0.71973185000000006     
 chl2c          22  0.64616892500000001        3.7613353106285476E-002  0.64616892500000001        0.0000000000000000        8.5758756505924872E-016
 chl          22   7.5213583764307499E-027   1.1639925854420731E-026  0.64616892500000001     
 chl2c          23  0.41564179999999995        3.2286562315070731E-002  0.41564179999999995        0.0000000000000000        3.7624960737670101E-009
 chl          23   4.8380397339979699E-027   1.1639925854420731E-026  0.41564179999999995     
 chl2c          24  0.57597492500000003        3.7348402796863071E-002  0.57597492500000003        0.0000000000000000        9.2306075838807842E-016
 chl          24   6.7043054210055416E-027   1.1639925854420731E-026  0.57597492500000003     
 chl2c          25  0.31406487500000002        4.5426679235459781E-002  0.31406487500000002        0.0000000000000000        2.8660530583625427E-009
 chl          25   3.6556918584779155E-027   1.1639925854420731E-026  0.31406487500000002     
 chl2c          26  0.49427735000000000        4.7955660680174553E-002  0.49427735000000000        0.0000000000000000        2.0347170878697462E-019
 chl          26   5.7533517055195649E-027   1.1639925854420731E-026  0.49427735000000000     
 chl2c          27  0.30964730000000001        4.5333133499525620E-002  0.30964730000000001        0.0000000000000000        2.8358911274702905E-018
 chl          27   3.6042716130215724E-027   1.1639925854420731E-026  0.30964730000000001     
 chl2c          28  0.28776342500000002        3.1209236063453518E-002  0.28776342500000002        0.0000000000000000        2.8182516747325688E-018
 chl          28   3.3495449306141608E-027   1.1639925854420731E-026  0.28776342500000002     
 chl2c          29  0.68676297499999994        3.7743217595736761E-002  0.68676297499999994        0.0000000000000000        9.2980808211980372E-016
 chl          29   7.9938701085613971E-027   1.1639925854420731E-026  0.68676297499999994     
 chl2c          30  0.38930277499999999        2.5380056985171612E-002  0.38930277499999999        0.0000000000000000        5.4246616100825675E-016
 chl          30   4.5314554359202361E-027   1.1639925854420731E-026  0.38930277499999999     
 chl2c          31  0.63559385000000002        3.7576959810037038E-002  0.63559385000000002        0.0000000000000000        9.3230712468033865E-016
 chl          31   7.3982652875258124E-027   1.1639925854420731E-026  0.63559385000000002     
 chl2c          32  0.24722667500000001        2.0893126428578448E-002  0.24722667500000001        0.0000000000000000        5.4263350700302134E-016
 chl          32   2.8777001662349713E-027   1.1639925854420731E-026  0.24722667500000001     
 chl2c          33  0.60343137499999999        3.7458922634011876E-002  0.60343137499999999        0.0000000000000000        3.0678408936930458E-006
 chl          33   7.0238964632311519E-027   1.1639925854420731E-026  0.60343137499999999     
 chl2c          34  0.38241020000000003        2.5350269098008315E-002  0.38241020000000003        0.0000000000000000        5.3754844775110607E-016
 chl          34   4.4512263739742028E-027   1.1639925854420731E-026  0.38241020000000003     
 chl2c          35  0.49574644999999995        2.5740370148566064E-002  0.49574644999999995        0.0000000000000000        5.3846220344373360E-016
 chl          35   5.7704519205922934E-027   1.1639925854420731E-026  0.49574644999999995     
 chl2c          36  0.69587337500000002        3.7770393924465726E-002  0.69587337500000002        0.0000000000000000        8.5758756505924872E-016
 chl          36   8.0999144890655124E-027   1.1639925854420731E-026  0.69587337500000002     
 chl2c          37  0.33194060000000003        2.1353674699533250E-002  0.33194060000000003        0.0000000000000000        5.3715258226026339E-016
 chl          37   3.8637639720719301E-027   1.1639925854420731E-026  0.33194060000000003     
 chl2c          38  0.38455722500000000        2.1543295686358745E-002  0.38455722500000000        0.0000000000000000        5.4268038485209066E-016
 chl          38   4.4762175857817904E-027   1.1639925854420731E-026  0.38455722500000000     
 chl2c          39  0.47091117500000002        2.5670077108751441E-002  0.47091117500000002        0.0000000000000000        5.4019737466065606E-016
 chl          39   5.4813711610181453E-027   1.1639925854420731E-026  0.47091117500000002     
 chl2c          40  0.66875547499999999        3.7687445774703773E-002  0.66875547499999999        0.0000000000000000        1.0905580225414010E-005
 chl          40   7.7842641437379168E-027   1.1639925854420731E-026  0.66875547499999999     
 chl2c          41  0.44304987499999998        2.5582381488167241E-002  0.44304987499999998        0.0000000000000000        6.8319752313581243E-006
 chl          41   5.1570676948103727E-027   1.1639925854420731E-026  0.44304987499999998     
 chl2c          42  0.76234377499999995        3.7949995630725070E-002  0.76234377499999995        0.0000000000000000        1.1864808747271837E-005
 chl          42   8.8736250165791997E-027   1.1639925854420731E-026  0.76234377499999995     
 chl2c          43  0.29539925000000000        2.1185090152268007E-002  0.29539925000000000        0.0000000000000000        2.8436130006539627E-006
 chl          43   3.4384253674514930E-027   1.1639925854420731E-026  0.29539925000000000     
 chl2c          44  0.62417262500000004        3.7536352708156646E-002  0.62417262500000004        0.0000000000000000        1.0127308301210693E-005
 chl          44   7.2653230753591561E-027   1.1639925854420731E-026  0.62417262500000004     
 chl2c          45  0.37662252499999999        4.6544927192009838E-002  0.37662252499999999        0.0000000000000000        2.7099821644797046E-019
 chl          45   4.3838582661047178E-027   1.1639925854420731E-026  0.37662252499999999     
 chl2c          46  0.51876034999999998        3.7083195475449568E-002  0.51876034999999998        0.0000000000000000        9.3227637977108489E-016
 chl          46   6.0383320102133474E-027   1.1639925854420731E-026  0.51876034999999998     
 chl2c          47  0.61962282499999999        3.7519784612651236E-002  0.61962282499999999        0.0000000000000000        1.2200999880858554E-006
 chl          47   7.2123637407067118E-027   1.1639925854420731E-026  0.61962282499999999     
 chl2c          48  0.71424949999999998        3.7823212136301673E-002  0.71424949999999998        0.0000000000000000        1.1737897486871445E-005
 chl          48   8.3138112215570795E-027   1.1639925854420731E-026  0.71424949999999998     
 chl2c          49  0.53276120000000005        3.7152990741888416E-002  0.53276120000000005        0.0000000000000000        1.6416692619723704E-006
 chl          49   6.2013008661122144E-027   1.1639925854420731E-026  0.53276120000000005     
 chl2c          50  0.38132569999999999        2.1533072915600981E-002  0.38132569999999999        0.0000000000000000        5.3934227784785836E-016
 chl          50   4.4386028743850829E-027   1.1639925854420731E-026  0.38132569999999999     
 chl2c          51  0.22275920000000002        2.0700971146093840E-002  0.22275920000000002        0.0000000000000000        5.4329263416338068E-016
 chl          51   2.5929005713900788E-027   1.1639925854420731E-026  0.22275920000000002     
 chl2c          52  0.63698869999999996        3.7581825176985564E-002  0.63698869999999996        0.0000000000000000        1.0723800002919391E-005
 chl          52   7.4145012381038507E-027   1.1639925854420731E-026  0.63698869999999996     
 chl2c          53  0.75269794999999995        3.7925801262726190E-002  0.75269794999999995        0.0000000000000000        1.0957732945683662E-005
 chl          53   8.7613483287744811E-027   1.1639925854420731E-026  0.75269794999999995     
 chl2c          54  0.51861124999999997        3.7082433371327092E-002  0.51861124999999997        0.0000000000000000        1.9477558490996560E-006
 chl          54   6.0365964972684527E-027   1.1639925854420731E-026  0.51861124999999997     
 chl2c          55  0.57808280000000001        3.7357235588660491E-002  0.57808280000000001        0.0000000000000000        9.3401113965743060E-016
 chl          55   6.7288409297159280E-027   1.1639925854420731E-026  0.57808280000000001     
 chl2c          56  0.61626080000000005        3.7507394187257688E-002  0.61626080000000005        0.0000000000000000        8.5758756505924872E-016
 chl          56   7.1732300189860038E-027   1.1639925854420731E-026  0.61626080000000005     
 chl2c          57  0.68163462500000005        3.7727617852646313E-002  0.68163462500000005        0.0000000000000000        9.3455678046774633E-016
 chl          57   7.9341764948058804E-027   1.1639925854420731E-026  0.68163462500000005     
 chl2c          58  0.69416802499999997        3.7765358178394853E-002  0.69416802499999997        0.0000000000000000        5.8570761137857436E-006
 chl          58   8.0800643415096763E-027   1.1639925854420731E-026  0.69416802499999997     
 chl2c          59  0.53705127500000005        3.7173699120809672E-002  0.53705127500000005        0.0000000000000000        1.1751135333221671E-005
 chl          59   6.2512370210221186E-027   1.1639925854420731E-026  0.53705127500000005     
 chl2c          60  0.64452155000000000        3.7607757740906807E-002  0.64452155000000000        0.0000000000000000        7.7740208379324525E-006
 chl          60   7.5021830535763233E-027   1.1639925854420731E-026  0.64452155000000000     
 chl2c          61  0.70794139999999994        3.7805373434125003E-002  0.70794139999999994        0.0000000000000000        9.3034453570421891E-016
 chl          61   8.2403854052748081E-027   1.1639925854420731E-026  0.70794139999999994     
 chl2c          62  0.76481592499999995        3.7956103087269030E-002  0.76481592499999995        0.0000000000000000        1.1647282578007391E-005
 chl          62   8.9024006592802062E-027   1.1639925854420731E-026  0.76481592499999995     
 chl2c          63  0.72597904999999996        3.7855601011927406E-002  0.72597904999999996        0.0000000000000000        7.5704157915834558E-007
 chl          63   8.4503423138628003E-027   1.1639925854420731E-026  0.72597904999999996     
 chl2c          64  0.48435739999999999        2.5708982294816416E-002  0.48435739999999999        0.0000000000000000        5.3497569973187422E-016
 chl          64   5.6378842230400036E-027   1.1639925854420731E-026  0.48435739999999999     
 chl2c          65  0.76379975000000000        3.7953597170552002E-002  0.76379975000000000        0.0000000000000000        1.0787805588423999E-005
 chl          65   8.8905724576250900E-027   1.1639925854420731E-026  0.76379975000000000     
 chl2c          66  0.35213202499999996        3.1840477731474713E-002  0.35213202499999996        0.0000000000000000        2.2286441119366228E-019
 chl          66   4.0987906619670268E-027   1.1639925854420731E-026  0.35213202499999996     
 chl2c          67  0.75736760000000003        3.7937587124568600E-002  0.75736760000000003        0.0000000000000000        1.8601746192768844E-006
 chl          67   8.8157027085405783E-027   1.1639925854420731E-026  0.75736760000000003     
 chl2c          68  0.72590779999999999        3.7855407263856986E-002  0.72590779999999999        0.0000000000000000        6.9816753372706899E-006
 chl          68   8.4495129691456732E-027   1.1639925854420731E-026  0.72590779999999999     
 chl2c          69  0.45524217500000003        2.1732330561541505E-002  0.45524217500000003        0.0000000000000000        5.3799172135575092E-016
 chl          69   5.2989851628052271E-027   1.1639925854420731E-026  0.45524217500000003     
 chl2c          70  0.48694062500000002        3.2658010878182209E-002  0.48694062500000002        0.0000000000000000        3.4851170111129311E-018
 chl          70   5.6679527705052894E-027   1.1639925854420731E-026  0.48694062500000002     
 chl2c          71  0.23986107500000001        4.3481058864416305E-002  0.23986107500000001        0.0000000000000000        2.7951555482372449E-009
 chl          71   2.7919651283616499E-027   1.1639925854420731E-026  0.23986107500000001     
 chl2c          72  0.62790522500000001        3.7549776402781669E-002  0.62790522500000001        0.0000000000000000        1.0483393881851114E-005
 chl          72   7.3087702626033664E-027   1.1639925854420731E-026  0.62790522500000001     
 chl2c          73  0.35362212500000001        3.1852614277819484E-002  0.35362212500000001        0.0000000000000000        2.7988178518885139E-019
 chl          73   4.1161353154826992E-027   1.1639925854420731E-026  0.35362212500000001     
 chl2c          74  0.64719590000000005        3.7616827685877569E-002  0.64719590000000005        0.0000000000000000        8.0058562386005351E-006
 chl          74   7.5333122892850943E-027   1.1639925854420731E-026  0.64719590000000005     
 chl2c          75  0.71554212500000003        3.7826830779512356E-002  0.71554212500000003        0.0000000000000000        8.5758756505924872E-016
 chl          75   8.3288572807146505E-027   1.1639925854420731E-026  0.71554212500000003     
 chl2c          76  0.55513977500000000        3.7257729557919804E-002  0.55513977500000000        0.0000000000000000        8.5758756505924872E-016
 chl          76   6.4617858198398069E-027   1.1639925854420731E-026  0.55513977500000000     
 chl2c          77  0.52973029999999999        3.7138172437479272E-002  0.52973029999999999        0.0000000000000000        1.0035726276380632E-005
 chl          77   6.1660214148400494E-027   1.1639925854420731E-026  0.52973029999999999     
 chl2c          78  0.45117492500000000        4.7515248899399322E-002  0.45117492500000000        0.0000000000000000        3.5976348810306696E-018
 chl          78   5.2516426743738340E-027   1.1639925854420731E-026  0.45117492500000000     
 prod   1.0116543378077063E-009   0.0000000000000000        10.000000000000000     
 chl2c           1  0.60826437499999997        3.7477407714772232E-002  0.60826437499999997        0.0000000000000000        9.0751768723681416E-006
 chl           1   7.2766648433637246E-022   1.1962996917851263E-021  0.60826437499999997     
 chl2c           2  0.48302390000000001        3.2640259920490348E-002  0.48302390000000001        0.0000000000000000        2.0342300865750774E-019
 chl           2   5.7784134269484966E-022   1.1962996917851263E-021  0.48302390000000001     
 chl2c           3  0.75128689999999998        3.7922212503796585E-002  0.75128689999999998        0.0000000000000000        8.8068934110418058E-016
 chl           3   8.9876428691220305E-022   1.1962996917851263E-021  0.75128689999999998     
 chl2c           4  0.77318742499999993        3.7976509103863923E-002  0.77318742499999993        0.0000000000000000        8.8068934110418058E-016
 chl           4   9.2496387821963543E-022   1.1962996917851263E-021  0.77318742499999993     
 chl2c           5  0.48489679999999996        2.5710500362372445E-002  0.48489679999999996        0.0000000000000000        5.3956964183503835E-016
 chl           5   5.8008189238759395E-022   1.1962996917851263E-021  0.48489679999999996     
 chl2c           6  0.29222855000000003        3.1261039902252048E-002  0.29222855000000003        0.0000000000000000        4.2644595090025344E-008
 chl           6   3.4959292429581439E-022   1.1962996917851263E-021  0.29222855000000003     
 chl2c           7  0.22770740000000000        4.3064391842467263E-002  0.22770740000000000        0.0000000000000000        1.9849883073724520E-019
 chl           7   2.7240629243719249E-022   1.1962996917851263E-021  0.22770740000000000     
 chl2c           8  0.49578364999999996        4.7969800906495587E-002  0.49578364999999996        0.0000000000000000        2.1091440519195061E-019
 chl           8   5.9310582768710491E-022   1.1962996917851263E-021  0.49578364999999996     
 chl2c           9  0.28700202499999999        2.4803669054600401E-002  0.28700202499999999        0.0000000000000000        5.4184081042678104E-016
 chl           9   3.4334043404920709E-022   1.1962996917851263E-021  0.28700202499999999     
 chl2c          10  0.39094662499999999        2.5387016219684602E-002  0.39094662499999999        0.0000000000000000        5.4184867389951898E-016
 chl          10   4.6768932699193534E-022   1.1962996917851263E-021  0.39094662499999999     
 chl2c          11  0.49737575000000001        2.1820572217820047E-002  0.49737575000000001        0.0000000000000000        5.4221120267800338E-016
 chl          11   5.9501045642639600E-022   1.1962996917851263E-021  0.49737575000000001     
 chl2c          12  0.30768942500000002        4.5290941298723353E-002  0.30768942500000002        0.0000000000000000        2.4636658339952057E-009
 chl          12   3.6808876429304273E-022   1.1962996917851263E-021  0.30768942500000002     
 chl2c          13  0.75666275000000005        3.7935816987997487E-002  0.75666275000000005        0.0000000000000000        1.1043117779973628E-005
 chl          13   9.0519541461028606E-022   1.1962996917851263E-021  0.75666275000000005     
 chl2c          14  0.39804095000000000        4.6856526101924839E-002  0.39804095000000000        0.0000000000000000        2.7345491733340720E-018
 chl          14   4.7617626580285889E-022   1.1962996917851263E-021  0.39804095000000000     
 chl2c          15  0.25607262500000000        2.0954299823745293E-002  0.25607262500000000        0.0000000000000000        5.4323458438436399E-016
 chl          15   3.0633960236210822E-022   1.1962996917851263E-021  0.25607262500000000     
 chl2c          16  0.71433214999999994        3.7823443882273475E-002  0.71433214999999994        0.0000000000000000        1.0477515058539582E-005
 chl          16   8.5455533087720644E-022   1.1962996917851263E-021  0.71433214999999994     
 chl2c          17  0.62580860000000005        3.7542254757581245E-002  0.62580860000000005        0.0000000000000000        2.8551424955119210E-006
 chl          17   7.4865463529648141E-022   1.1962996917851263E-021  0.62580860000000005     
 chl2c          18  0.47925950000000000        2.5694475239060960E-002  0.47925950000000000        0.0000000000000000        5.4264471959075209E-016
 chl          18   5.7333799213509373E-022   1.1962996917851263E-021  0.47925950000000000     
 chl2c          19  0.63367130000000005        3.7570220750293731E-002  0.63367130000000005        0.0000000000000000        1.3751616193784070E-007
 chl          19   7.5806078088308032E-022   1.1962996917851263E-021  0.63367130000000005     
 chl2c          20  0.50678202500000002        3.7020645196759419E-002  0.50678202500000002        0.0000000000000000        1.0917116838857392E-005
 chl          20   6.0626318030974224E-022   1.1962996917851263E-021  0.50678202500000002     
 chl2c          21  0.71973185000000006        3.7838475073783531E-002  0.71973185000000006        0.0000000000000000        4.1877221836508561E-006
 chl          21   8.6101499032293886E-022   1.1962996917851263E-021  0.71973185000000006     
 chl2c          22  0.64616892500000001        3.7613353106285476E-002  0.64616892500000001        0.0000000000000000        8.8068934110418058E-016
 chl          22   7.7301168581862642E-022   1.1962996917851263E-021  0.64616892500000001     
 chl2c          23  0.41564179999999995        3.2286562315070731E-002  0.41564179999999995        0.0000000000000000        3.4056309307742441E-009
 chl          23   4.9723215723301505E-022   1.1962996917851263E-021  0.41564179999999995     
 chl2c          24  0.57597492500000003        3.7348402796863071E-002  0.57597492500000003        0.0000000000000000        9.2824422998013638E-016
 chl          24   6.8903862525346124E-022   1.1962996917851263E-021  0.57597492500000003     
 chl2c          25  0.31406487500000002        4.5426679235459781E-002  0.31406487500000002        0.0000000000000000        2.6037413058548104E-009
 chl          25   3.7571571316303422E-022   1.1962996917851263E-021  0.31406487500000002     
 chl2c          26  0.49427735000000000        4.7955660680174553E-002  0.49427735000000000        0.0000000000000000        4.1915649939359405E-010
 chl          26   5.9130384146136898E-022   1.1962996917851263E-021  0.49427735000000000     
 chl2c          27  0.30964730000000001        4.5333133499525620E-002  0.30964730000000001        0.0000000000000000        2.7108534514314992E-018
 chl          27   3.7043096955209656E-022   1.1962996917851263E-021  0.30964730000000001     
 chl2c          28  0.28776342500000002        3.1209236063453518E-002  0.28776342500000002        0.0000000000000000        1.3349605413885886E-008
 chl          28   3.4425129663453231E-022   1.1962996917851263E-021  0.28776342500000002     
 chl2c          29  0.68676297499999994        3.7743217595736761E-002  0.68676297499999994        0.0000000000000000        9.3416936067240992E-016
 chl          29   8.2157433532193635E-022   1.1962996917851263E-021  0.68676297499999994     
 chl2c          30  0.38930277499999999        2.5380056985171612E-002  0.38930277499999999        0.0000000000000000        5.4351437240667917E-016
 chl          30   4.6572278974359439E-022   1.1962996917851263E-021  0.38930277499999999     
 chl2c          31  0.63559385000000002        3.7576959810037038E-002  0.63559385000000002        0.0000000000000000        9.3635922540461370E-016
 chl          31   7.6036072685552182E-022   1.1962996917851263E-021  0.63559385000000002     
 chl2c          32  0.24722667500000001        2.0893126428578448E-002  0.24722667500000001        0.0000000000000000        5.4365808198962345E-016
 chl          32   2.9575719510356159E-022   1.1962996917851263E-021  0.24722667500000001     
 chl2c          33  0.60343137499999999        3.7458922634011876E-002  0.60343137499999999        0.0000000000000000        9.2987519926133009E-016
 chl          33   7.2188476792597491E-022   1.1962996917851263E-021  0.60343137499999999     
 chl2c          34  0.38241020000000003        2.5350269098008315E-002  0.38241020000000003        0.0000000000000000        5.3925614937914656E-016
 chl          34   4.5747720439548851E-022   1.1962996917851263E-021  0.38241020000000003     
 chl2c          35  0.49574644999999995        2.5740370148566064E-002  0.49574644999999995        0.0000000000000000        5.4005110924675564E-016
 chl          35   5.9306132533857049E-022   1.1962996917851263E-021  0.49574644999999995     
 chl2c          36  0.69587337500000002        3.7770393924465726E-002  0.69587337500000002        0.0000000000000000        8.8068934110418058E-016
 chl          36   8.3247310403397558E-022   1.1962996917851263E-021  0.69587337500000002     
 chl2c          37  0.33194060000000003        2.1353674699533250E-002  0.33194060000000003        0.0000000000000000        5.3891137590896129E-016
 chl          37   3.9710043747096995E-022   1.1962996917851263E-021  0.33194060000000003     
 chl2c          38  0.38455722500000000        2.1543295686358745E-002  0.38455722500000000        0.0000000000000000        5.4369831770670892E-016
 chl          38   4.6004568974124344E-022   1.1962996917851263E-021  0.38455722500000000     
 chl2c          39  0.47091117500000002        2.5670077108751441E-002  0.47091117500000002        0.0000000000000000        5.4155674142913065E-016
 chl          39   5.6335089351067173E-022   1.1962996917851263E-021  0.47091117500000002     
 chl2c          40  0.66875547499999999        3.7687445774703773E-002  0.66875547499999999        0.0000000000000000        1.0477498652832469E-005
 chl          40   8.0003196862211575E-022   1.1962996917851263E-021  0.66875547499999999     
 chl2c          41  0.44304987499999998        2.5582381488167241E-002  0.44304987499999998        0.0000000000000000        6.0413304220875007E-006
 chl          41   5.3002042890793872E-022   1.1962996917851263E-021  0.44304987499999998     
 chl2c          42  0.76234377499999995        3.7949995630725070E-002  0.76234377499999995        0.0000000000000000        1.1112925013549295E-005
 chl          42   9.1199162306680958E-022   1.1962996917851263E-021  0.76234377499999995     
 chl2c          43  0.29539925000000000        2.1185090152268007E-002  0.29539925000000000        0.0000000000000000        5.4366016314360402E-016
 chl          43   3.5338603172855746E-022   1.1962996917851263E-021  0.29539925000000000     
 chl2c          44  0.62417262500000004        3.7536352708156646E-002  0.62417262500000004        0.0000000000000000        1.0707351097204645E-005
 chl          44   7.4669751890821325E-022   1.1962996917851263E-021  0.62417262500000004     
 chl2c          45  0.37662252499999999        4.6544927192009838E-002  0.37662252499999999        0.0000000000000000        2.6733552818496151E-019
 chl          45   4.5055341057683597E-022   1.1962996917851263E-021  0.37662252499999999     
 chl2c          46  0.51876034999999998        3.7083195475449568E-002  0.51876034999999998        0.0000000000000000        9.3633230130043893E-016
 chl          46   6.2059284681534418E-022   1.1962996917851263E-021  0.51876034999999998     
 chl2c          47  0.61962282499999999        3.7519784612651236E-002  0.61962282499999999        0.0000000000000000        4.9866780415117412E-006
 chl          47   7.4125459457052927E-022   1.1962996917851263E-021  0.61962282499999999     
 chl2c          48  0.71424949999999998        3.7823212136301673E-002  0.71424949999999998        0.0000000000000000        1.1126354473520247E-005
 chl          48   8.5445645670768058E-022   1.1962996917851263E-021  0.71424949999999998     
 chl2c          49  0.53276120000000005        3.7152990741888416E-002  0.53276120000000005        0.0000000000000000        5.4086838479595485E-006
 chl          49   6.3734205935507407E-022   1.1962996917851263E-021  0.53276120000000005     
 chl2c          50  0.38132569999999999        2.1533072915600981E-002  0.38132569999999999        0.0000000000000000        5.4081548172883147E-016
 chl          50   4.5617981737974754E-022   1.1962996917851263E-021  0.38132569999999999     
 chl2c          51  0.22275920000000002        2.0700971146093840E-002  0.22275920000000002        0.0000000000000000        5.4422290007422655E-016
 chl          51   2.6648676230230131E-022   1.1962996917851263E-021  0.22275920000000002     
 chl2c          52  0.63698869999999996        3.7581825176985564E-002  0.63698869999999996        0.0000000000000000        1.0466342096253439E-005
 chl          52   7.6202938548060827E-022   1.1962996917851263E-021  0.63698869999999996     
 chl2c          53  0.75269794999999995        3.7925801262726190E-002  0.75269794999999995        0.0000000000000000        1.0477592355848073E-005
 chl          53   9.0045232559229628E-022   1.1962996917851263E-021  0.75269794999999995     
 chl2c          54  0.51861124999999997        3.7082433371327092E-002  0.51861124999999997        0.0000000000000000        5.6910488925526476E-006
 chl          54   6.2041447853129907E-022   1.1962996917851263E-021  0.51861124999999997     
 chl2c          55  0.57808280000000001        3.7357235588660491E-002  0.57808280000000001        0.0000000000000000        9.3785076601066897E-016
 chl          55   6.9156027546628277E-022   1.1962996917851263E-021  0.57808280000000001     
 chl2c          56  0.61626080000000005        3.7507394187257688E-002  0.61626080000000005        0.0000000000000000        8.8068934110418058E-016
 chl          56   7.3723260509925541E-022   1.1962996917851263E-021  0.61626080000000005     
 chl2c          57  0.68163462500000005        3.7727617852646313E-002  0.68163462500000005        0.0000000000000000        9.3832806498680291E-016
 chl          57   8.1543929179757016E-022   1.1962996917851263E-021  0.68163462500000005     
 chl2c          58  0.69416802499999997        3.7765358178394853E-002  0.69416802499999997        0.0000000000000000        1.7354278745410826E-006
 chl          58   8.3043299435458979E-022   1.1962996917851263E-021  0.69416802499999997     
 chl2c          59  0.53705127500000005        3.7173699120809672E-002  0.53705127500000005        0.0000000000000000        1.0041431550393159E-005
 chl          59   6.4247427475530919E-022   1.1962996917851263E-021  0.53705127500000005     
 chl2c          60  0.64452155000000000        3.7607757740906807E-002  0.64452155000000000        0.0000000000000000        3.3838213568387092E-006
 chl          60   7.7104093161387184E-022   1.1962996917851263E-021  0.64452155000000000     
 chl2c          61  0.70794139999999994        3.7805373434125003E-002  0.70794139999999994        0.0000000000000000        9.3463967580600029E-016
 chl          61   8.4691007862193072E-022   1.1962996917851263E-021  0.70794139999999994     
 chl2c          62  0.76481592499999995        3.7956103087269030E-002  0.76481592499999995        0.0000000000000000        1.1032593579337245E-005
 chl          62   9.1494905534985626E-022   1.1962996917851263E-021  0.76481592499999995     
 chl2c          63  0.72597904999999996        3.7855601011927406E-002  0.72597904999999996        0.0000000000000000        8.8068934110418058E-016
 chl          63   8.6848851375745876E-022   1.1962996917851263E-021  0.72597904999999996     
 chl2c          64  0.48435739999999999        2.5708982294816416E-002  0.48435739999999999        0.0000000000000000        5.3701202357991760E-016
 chl          64   5.7943660833384513E-022   1.1962996917851263E-021  0.48435739999999999     
 chl2c          65  0.76379975000000000        3.7953597170552002E-002  0.76379975000000000        0.0000000000000000        9.4679863359764654E-006
 chl          65   9.1373340551055645E-022   1.1962996917851263E-021  0.76379975000000000     
 chl2c          66  0.35213202499999996        3.1840477731474713E-002  0.35213202499999996        0.0000000000000000        2.1985201785008217E-019
 chl          66   4.2125543297517236E-022   1.1962996917851263E-021  0.35213202499999996     
 chl2c          67  0.75736760000000003        3.7937587124568600E-002  0.75736760000000003        0.0000000000000000        5.6236730261263123E-006
 chl          67   9.0603862644804092E-022   1.1962996917851263E-021  0.75736760000000003     
 chl2c          68  0.72590779999999999        3.7855407263856986E-002  0.72590779999999999        0.0000000000000000        2.9243890971733936E-006
 chl          68   8.6840327740441905E-022   1.1962996917851263E-021  0.72590779999999999     
 chl2c          69  0.45524217500000003        2.1732330561541505E-002  0.45524217500000003        0.0000000000000000        5.3964195078796286E-016
 chl          69   5.4460607364009056E-022   1.1962996917851263E-021  0.45524217500000003     
 chl2c          70  0.48694062500000002        3.2658010878182209E-002  0.48694062500000002        0.0000000000000000        1.6837583755035065E-008
 chl          70   5.8252691960515679E-022   1.1962996917851263E-021  0.48694062500000002     
 chl2c          71  0.23986107500000001        4.3481058864416305E-002  0.23986107500000001        0.0000000000000000        1.5362805835605633E-009
 chl          71   2.8694573009374907E-022   1.1962996917851263E-021  0.23986107500000001     
 chl2c          72  0.62790522500000001        3.7549776402781669E-002  0.62790522500000001        0.0000000000000000        1.0432866702679144E-005
 chl          72   7.5116282713777039E-022   1.1962996917851263E-021  0.62790522500000001     
 chl2c          73  0.35362212500000001        3.1852614277819484E-002  0.35362212500000001        0.0000000000000000        2.7609909084074769E-019
 chl          73   4.2303803914590141E-022   1.1962996917851263E-021  0.35362212500000001     
 chl2c          74  0.64719590000000005        3.7616827685877569E-002  0.64719590000000005        0.0000000000000000        3.6041251338408669E-006
 chl          74   7.7424025569459749E-022   1.1962996917851263E-021  0.64719590000000005     
 chl2c          75  0.71554212500000003        3.7826830779512356E-002  0.71554212500000003        0.0000000000000000        8.8068934110418058E-016
 chl          75   8.5600282359677434E-022   1.1962996917851263E-021  0.71554212500000003     
 chl2c          76  0.55513977500000000        3.7257729557919804E-002  0.55513977500000000        0.0000000000000000        8.8068934110418058E-016
 chl          76   6.6411354173016439E-022   1.1962996917851263E-021  0.55513977500000000     
 chl2c          77  0.52973029999999999        3.7138172437479272E-002  0.52973029999999999        0.0000000000000000        6.5420863815884982E-006
 chl          77   6.3371619461924248E-022   1.1962996917851263E-021  0.52973029999999999     
 chl2c          78  0.45117492500000000        4.7515248899399322E-002  0.45117492500000000        0.0000000000000000        3.4392106037901724E-018
 chl          78   5.3974042371867743E-022   1.1962996917851263E-021  0.45117492500000000     
 prod   9.9797464391424204E-010   0.0000000000000000        10.000000000000000     
 chl2c           1  0.60826437499999997        3.7477407714772232E-002  0.60826437499999997        0.0000000000000000        3.6254364088597981E-006
 chl           1   2.5266391416006502E-016   4.1538502753850252E-016  0.60826437499999997     
 chl2c           2  0.48302390000000001        3.2640259920490348E-002  0.48302390000000001        0.0000000000000000        1.8705299415347900E-019
 chl           2   2.0064089600325489E-016   4.1538502753850252E-016  0.48302390000000001     
 chl2c           3  0.75128689999999998        3.7922212503796585E-002  0.75128689999999998        0.0000000000000000        1.2839474329425452E-006
 chl           3   3.1207332964581620E-016   4.1538502753850252E-016  0.75128689999999998     
 chl2c           4  0.77318742499999993        3.7976509103863923E-002  0.77318742499999993        0.0000000000000000        9.1266968203285467E-016
 chl           4   3.2117047982604884E-016   4.1538502753850252E-016  0.77318742499999993     
 chl2c           5  0.48489679999999996        2.5710500362372445E-002  0.48489679999999996        0.0000000000000000        5.3956964183503835E-016
 chl           5   2.0141887062133173E-016   4.1538502753850252E-016  0.48489679999999996     
 chl2c           6  0.29222855000000003        3.1261039902252048E-002  0.29222855000000003        0.0000000000000000        2.8634643116029276E-008
 chl           6   1.2138736428928668E-016   4.1538502753850252E-016  0.29222855000000003     
 chl2c           7  0.22770740000000000        4.3064391842467263E-002  0.22770740000000000        0.0000000000000000        1.8252494722719600E-019
 chl           7   9.4586244619720810E-017   4.1538502753850252E-016  0.22770740000000000     
 chl2c           8  0.49578364999999996        4.7969800906495587E-002  0.49578364999999996        0.0000000000000000        1.9394174941699136E-019
 chl           8   2.0594110510838929E-016   4.1538502753850252E-016  0.49578364999999996     
 chl2c           9  0.28700202499999999        2.4803669054600401E-002  0.28700202499999999        0.0000000000000000        5.4184081042678104E-016
 chl           9   1.1921634405823099E-016   4.1538502753850252E-016  0.28700202499999999     
 chl2c          10  0.39094662499999999        2.5387016219684602E-002  0.39094662499999999        0.0000000000000000        5.4184867389951898E-016
 chl          10   1.6239337459170960E-016   4.1538502753850252E-016  0.39094662499999999     
 chl2c          11  0.49737575000000001        2.1820572217820047E-002  0.49737575000000001        0.0000000000000000        7.0017397929584133E-007
 chl          11   2.0660243961073336E-016   4.1538502753850252E-016  0.49737575000000001     
 chl2c          12  0.30768942500000002        4.5290941298723353E-002  0.30768942500000002        0.0000000000000000        2.0212908430150867E-009
 chl          12   1.2780958027693100E-016   4.1538502753850252E-016  0.30768942500000002     
 chl2c          13  0.75666275000000005        3.7935816987997487E-002  0.75666275000000005        0.0000000000000000        9.8176986370047773E-006
 chl          13   3.1430637724610905E-016   4.1538502753850252E-016  0.75666275000000005     
 chl2c          14  0.39804095000000000        4.6856526101924839E-002  0.39804095000000000        0.0000000000000000        2.3768757217671153E-018
 chl          14   1.6534025097720171E-016   4.1538502753850252E-016  0.39804095000000000     
 chl2c          15  0.25607262500000000        2.0954299823745293E-002  0.25607262500000000        0.0000000000000000        5.4323458438436399E-016
 chl          15   1.0636873438748163E-016   4.1538502753850252E-016  0.25607262500000000     
 chl2c          16  0.71433214999999994        3.7823443882273475E-002  0.71433214999999994        0.0000000000000000        9.5538474010034510E-006
 chl          16   2.9672287979938768E-016   4.1538502753850252E-016  0.71433214999999994     
 chl2c          17  0.62580860000000005        3.7542254757581245E-002  0.62580860000000005        0.0000000000000000        7.6691646371169572E-006
 chl          17   2.5995152254483174E-016   4.1538502753850252E-016  0.62580860000000005     
 chl2c          18  0.47925950000000000        2.5694475239060960E-002  0.47925950000000000        0.0000000000000000        5.4264471959075209E-016
 chl          18   1.9907722060558895E-016   4.1538502753850252E-016  0.47925950000000000     
 chl2c          19  0.63367130000000005        3.7570220750293731E-002  0.63367130000000005        0.0000000000000000        9.1266968203285467E-016
 chl          19   2.6321757040085869E-016   4.1538502753850252E-016  0.63367130000000005     
 chl2c          20  0.50678202500000002        3.7020645196759419E-002  0.50678202500000002        0.0000000000000000        9.8509802359102527E-006
 chl          20   2.1050966541064308E-016   4.1538502753850252E-016  0.50678202500000002     
 chl2c          21  0.71973185000000006        3.7838475073783531E-002  0.71973185000000006        0.0000000000000000        9.3329272539305717E-016
 chl          21   2.9896583433258740E-016   4.1538502753850252E-016  0.71973185000000006     
 chl2c          22  0.64616892500000001        3.7613353106285476E-002  0.64616892500000001        0.0000000000000000        9.1266968203285467E-016
 chl          22   2.6840889670564957E-016   4.1538502753850252E-016  0.64616892500000001     
 chl2c          23  0.41564179999999995        3.2286562315070731E-002  0.41564179999999995        0.0000000000000000        1.7782440049577400E-009
 chl          23   1.7265138053915273E-016   4.1538502753850252E-016  0.41564179999999995     
 chl2c          24  0.57597492500000003        3.7348402796863071E-002  0.57597492500000003        0.0000000000000000        9.2824422998013638E-016
 chl          24   2.3925136008261192E-016   4.1538502753850252E-016  0.57597492500000003     
 chl2c          25  0.31406487500000002        4.5426679235459781E-002  0.31406487500000002        0.0000000000000000        1.4344035558306545E-009
 chl          25   1.3045784675075135E-016   4.1538502753850252E-016  0.31406487500000002     
 chl2c          26  0.49427735000000000        4.7955660680174553E-002  0.49427735000000000        0.0000000000000000        1.6726741641625539E-009
 chl          26   2.0531541064140805E-016   4.1538502753850252E-016  0.49427735000000000     
 chl2c          27  0.30964730000000001        4.5333133499525620E-002  0.30964730000000001        0.0000000000000000        1.6577388937004150E-008
 chl          27   1.2862285223772296E-016   4.1538502753850252E-016  0.30964730000000001     
 chl2c          28  0.28776342500000002        3.1209236063453518E-002  0.28776342500000002        0.0000000000000000        2.3341710107801389E-008
 chl          28   1.1953261821819880E-016   4.1538502753850252E-016  0.28776342500000002     
 chl2c          29  0.68676297499999994        3.7743217595736761E-002  0.68676297499999994        0.0000000000000000        9.3416936067240992E-016
 chl          29   2.8527105728279889E-016   4.1538502753850252E-016  0.68676297499999994     
 chl2c          30  0.38930277499999999        2.5380056985171612E-002  0.38930277499999999        0.0000000000000000        3.0476312053639826E-006
 chl          30   1.6171054391419045E-016   4.1538502753850252E-016  0.38930277499999999     
 chl2c          31  0.63559385000000002        3.7576959810037038E-002  0.63559385000000002        0.0000000000000000        9.3635922540461370E-016
 chl          31   2.6401616888555283E-016   4.1538502753850252E-016  0.63559385000000002     
 chl2c          32  0.24722667500000001        2.0893126428578448E-002  0.24722667500000001        0.0000000000000000        5.4365808198962345E-016
 chl          32   1.0269425920312742E-016   4.1538502753850252E-016  0.24722667500000001     
 chl2c          33  0.60343137499999999        3.7458922634011876E-002  0.60343137499999999        0.0000000000000000        9.2987519926133009E-016
 chl          33   2.5065635832197145E-016   4.1538502753850252E-016  0.60343137499999999     
 chl2c          34  0.38241020000000003        2.5350269098008315E-002  0.38241020000000003        0.0000000000000000        5.3925614937914656E-016
 chl          34   1.5884747145800427E-016   4.1538502753850252E-016  0.38241020000000003     
 chl2c          35  0.49574644999999995        2.5740370148566064E-002  0.49574644999999995        0.0000000000000000        5.4005110924675564E-016
 chl          35   2.0592565278536483E-016   4.1538502753850252E-016  0.49574644999999995     
 chl2c          36  0.69587337500000002        3.7770393924465726E-002  0.69587337500000002        0.0000000000000000        9.1266968203285467E-016
 chl          36   2.8905538103768568E-016   4.1538502753850252E-016  0.69587337500000002     
 chl2c          37  0.33194060000000003        2.1353674699533250E-002  0.33194060000000003        0.0000000000000000        5.3891137590896129E-016
 chl          37   1.3788315527214706E-016   4.1538502753850252E-016  0.33194060000000003     
 chl2c          38  0.38455722500000000        2.1543295686358745E-002  0.38455722500000000        0.0000000000000000        5.4369831770670892E-016
 chl          38   1.5973931349675510E-016   4.1538502753850252E-016  0.38455722500000000     
 chl2c          39  0.47091117500000002        2.5670077108751441E-002  0.47091117500000002        0.0000000000000000        5.4155674142913065E-016
 chl          39   1.9560945139556358E-016   4.1538502753850252E-016  0.47091117500000002     
 chl2c          40  0.66875547499999999        3.7687445774703773E-002  0.66875547499999999        0.0000000000000000        9.5550643833812803E-006
 chl          40   2.7779101139939935E-016   4.1538502753850252E-016  0.66875547499999999     
 chl2c          41  0.44304987499999998        2.5582381488167241E-002  0.44304987499999998        0.0000000000000000        2.2001993942519629E-006
 chl          41   1.8403628452780510E-016   4.1538502753850252E-016  0.44304987499999998     
 chl2c          42  0.76234377499999995        3.7949995630725070E-002  0.76234377499999995        0.0000000000000000        9.7003391712430205E-006
 chl          42   3.1666618997218094E-016   4.1538502753850252E-016  0.76234377499999995     
 chl2c          43  0.29539925000000000        2.1185090152268007E-002  0.29539925000000000        0.0000000000000000        5.4366016314360402E-016
 chl          43   1.2270442559610298E-016   4.1538502753850252E-016  0.29539925000000000     
 chl2c          44  0.62417262500000004        3.7536352708156646E-002  0.62417262500000004        0.0000000000000000        9.7800258342230067E-006
 chl          44   2.5927196302440442E-016   4.1538502753850252E-016  0.62417262500000004     
 chl2c          45  0.37662252499999999        4.6544927192009838E-002  0.37662252499999999        0.0000000000000000        2.4582459056705155E-019
 chl          45   1.5644335791874534E-016   4.1538502753850252E-016  0.37662252499999999     
 chl2c          46  0.51876034999999998        3.7083195475449568E-002  0.51876034999999998        0.0000000000000000        9.3633230130043893E-016
 chl          46   2.1548528227063321E-016   4.1538502753850252E-016  0.51876034999999998     
 chl2c          47  0.61962282499999999        3.7519784612651236E-002  0.61962282499999999        0.0000000000000000        8.7501651112896368E-006
 chl          47   2.5738204422610973E-016   4.1538502753850252E-016  0.61962282499999999     
 chl2c          48  0.71424949999999998        3.7823212136301673E-002  0.71424949999999998        0.0000000000000000        9.8376110750212073E-006
 chl          48   2.9668854822686163E-016   4.1538502753850252E-016  0.71424949999999998     
 chl2c          49  0.53276120000000005        3.7152990741888416E-002  0.53276120000000005        0.0000000000000000        8.8749122949889951E-006
 chl          49   2.2130102573344567E-016   4.1538502753850252E-016  0.53276120000000005     
 chl2c          50  0.38132569999999999        2.1533072915600981E-002  0.38132569999999999        0.0000000000000000        5.4081548172883147E-016
 chl          50   1.5839698639563876E-016   4.1538502753850252E-016  0.38132569999999999     
 chl2c          51  0.22275920000000002        2.0700971146093840E-002  0.22275920000000002        0.0000000000000000        5.4422290007422655E-016
 chl          51   9.2530836426454793E-017   4.1538502753850252E-016  0.22275920000000002     
 chl2c          52  0.63698869999999996        3.7581825176985564E-002  0.63698869999999996        0.0000000000000000        9.6057451716661142E-006
 chl          52   2.6459556869121488E-016   4.1538502753850252E-016  0.63698869999999996     
 chl2c          53  0.75269794999999995        3.7925801262726190E-002  0.75269794999999995        0.0000000000000000        9.3717325700571372E-006
 chl          53   3.1265945868892435E-016   4.1538502753850252E-016  0.75269794999999995     
 chl2c          54  0.51861124999999997        3.7082433371327092E-002  0.51861124999999997        0.0000000000000000        8.9324965808986701E-006
 chl          54   2.1542334836302719E-016   4.1538502753850252E-016  0.51861124999999997     
 chl2c          55  0.57808280000000001        3.7357235588660491E-002  0.57808280000000001        0.0000000000000000        9.3785076601066897E-016
 chl          55   2.4012693979753464E-016   4.1538502753850252E-016  0.57808280000000001     
 chl2c          56  0.61626080000000005        3.7507394187257688E-002  0.61626080000000005        0.0000000000000000        9.1266968203285467E-016
 chl          56   2.5598550937889960E-016   4.1538502753850252E-016  0.61626080000000005     
 chl2c          57  0.68163462500000005        3.7727617852646313E-002  0.68163462500000005        0.0000000000000000        9.3832806498680291E-016
 chl          57   2.8314081747682184E-016   4.1538502753850252E-016  0.68163462500000005     
 chl2c          58  0.69416802499999997        3.7765358178394853E-002  0.69416802499999997        0.0000000000000000        9.1266968203285467E-016
 chl          58   2.8834700418097289E-016   4.1538502753850252E-016  0.69416802499999997     
 chl2c          59  0.53705127500000005        3.7173699120809672E-002  0.53705127500000005        0.0000000000000000        4.5105237739782477E-006
 chl          59   2.2308305865546292E-016   4.1538502753850252E-016  0.53705127500000005     
 chl2c          60  0.64452155000000000        3.7607757740906807E-002  0.64452155000000000        0.0000000000000000        9.2749835364997745E-016
 chl          60   2.6772460179590831E-016   4.1538502753850252E-016  0.64452155000000000     
 chl2c          61  0.70794139999999994        3.7805373434125003E-002  0.70794139999999994        0.0000000000000000        1.3883779273006270E-006
 chl          61   2.9406825793464602E-016   4.1538502753850252E-016  0.70794139999999994     
 chl2c          62  0.76481592499999995        3.7956103087269030E-002  0.76481592499999995        0.0000000000000000        9.7487174220923421E-006
 chl          62   3.1769308406801027E-016   4.1538502753850252E-016  0.76481592499999995     
 chl2c          63  0.72597904999999996        3.7855601011927406E-002  0.72597904999999996        0.0000000000000000        9.1266968203285467E-016
 chl          63   3.0156082767662587E-016   4.1538502753850252E-016  0.72597904999999996     
 chl2c          64  0.48435739999999999        2.5708982294816416E-002  0.48435739999999999        0.0000000000000000        5.3701202357991760E-016
 chl          64   2.0119481193747748E-016   4.1538502753850252E-016  0.48435739999999999     
 chl2c          65  0.76379975000000000        3.7953597170552002E-002  0.76379975000000000        0.0000000000000000        4.5085760414890990E-006
 chl          65   3.1727098018765132E-016   4.1538502753850252E-016  0.76379975000000000     
 chl2c          66  0.35213202499999996        3.1840477731474713E-002  0.35213202499999996        0.0000000000000000        2.0216040046627358E-019
 chl          66   1.4627037090181365E-016   4.1538502753850252E-016  0.35213202499999996     
 chl2c          67  0.75736760000000003        3.7937587124568600E-002  0.75736760000000003        0.0000000000000000        8.9453218150206157E-006
 chl          67   3.1459916138276956E-016   4.1538502753850252E-016  0.75736760000000003     
 chl2c          68  0.72590779999999999        3.7855407263856986E-002  0.72590779999999999        0.0000000000000000        9.1266968203285467E-016
 chl          68   3.0153123149341380E-016   4.1538502753850252E-016  0.72590779999999999     
 chl2c          69  0.45524217500000003        2.1732330561541505E-002  0.45524217500000003        0.0000000000000000        5.3964195078796286E-016
 chl          69   1.8910078339906279E-016   4.1538502753850252E-016  0.45524217500000003     
 chl2c          70  0.48694062500000002        3.2658010878182209E-002  0.48694062500000002        0.0000000000000000        2.8931413252535636E-008
 chl          70   2.0226784492524064E-016   4.1538502753850252E-016  0.48694062500000002     
 chl2c          71  0.23986107500000001        4.3481058864416305E-002  0.23986107500000001        0.0000000000000000        2.2607223252329583E-019
 chl          71   9.9634699244289824E-017   4.1538502753850252E-016  0.23986107500000001     
 chl2c          72  0.62790522500000001        3.7549776402781669E-002  0.62790522500000001        0.0000000000000000        9.6116456978378779E-006
 chl          72   2.6082242917819461E-016   4.1538502753850252E-016  0.62790522500000001     
 chl2c          73  0.35362212500000001        3.1852614277819484E-002  0.35362212500000001        0.0000000000000000        2.5388332520671403E-019
 chl          73   1.4688933613134879E-016   4.1538502753850252E-016  0.35362212500000001     
 chl2c          74  0.64719590000000005        3.7616827685877569E-002  0.64719590000000005        0.0000000000000000        9.3433171110298633E-016
 chl          74   2.6883548674430593E-016   4.1538502753850252E-016  0.64719590000000005     
 chl2c          75  0.71554212500000003        3.7826830779512356E-002  0.71554212500000003        0.0000000000000000        9.1266968203285467E-016
 chl          75   2.9722548529808364E-016   4.1538502753850252E-016  0.71554212500000003     
 chl2c          76  0.55513977500000000        3.7257729557919804E-002  0.55513977500000000        0.0000000000000000        9.1266968203285467E-016
 chl          76   2.3059675072609310E-016   4.1538502753850252E-016  0.55513977500000000     
 chl2c          77  0.52973029999999999        3.7138172437479272E-002  0.52973029999999999        0.0000000000000000        9.2657778404485645E-016
 chl          77   2.2004203525347920E-016   4.1538502753850252E-016  0.52973029999999999     
 chl2c          78  0.45117492500000000        4.7515248899399322E-002  0.45117492500000000        0.0000000000000000        2.9898231856873843E-018
 chl          78   1.8741130864580682E-016   4.1538502753850252E-016  0.45117492500000000     
 prod   9.1763758698357533E-010   0.0000000000000000        10.000000000000000     
 chl2c           1  0.60826437499999997        3.7477407714772232E-002  0.60826437499999997        0.0000000000000000        9.3035873598120987E-016
 chl           1   1.5791550220977857E-010   2.5961655605718908E-010  0.60826437499999997     
 chl2c           2  0.48302390000000001        3.2640259920490348E-002  0.48302390000000001        0.0000000000000000        1.5161127863289606E-019
 chl           2   1.2540100141131210E-010   2.5961655605718908E-010  0.48302390000000001     
 chl2c           3  0.75128689999999998        3.7922212503796585E-002  0.75128689999999998        0.0000000000000000        5.9666199355781277E-006
 chl           3   1.9504651758888181E-010   2.5961655605718908E-010  0.75128689999999998     
 chl2c           4  0.77318742499999993        3.7976509103863923E-002  0.77318742499999993        0.0000000000000000        9.3035873598120987E-016
 chl           4   2.0073225646522615E-010   2.5961655605718908E-010  0.77318742499999993     
 chl2c           5  0.48489679999999996        2.5710500362372445E-002  0.48489679999999996        0.0000000000000000        5.3956964183503835E-016
 chl           5   1.2588723725915159E-010   2.5961655605718908E-010  0.48489679999999996     
 chl2c           6  0.29222855000000003        3.1261039902252048E-002  0.29222855000000003        0.0000000000000000        4.2453100826380833E-009
 chl           6   7.5867369732586091E-011   2.5961655605718908E-010  0.29222855000000003     
 chl2c           7  0.22770740000000000        4.3064391842467263E-002  0.22770740000000000        0.0000000000000000        1.4794094938156095E-019
 chl           7   5.9116610976736773E-011   2.5961655605718908E-010  0.22770740000000000     
 chl2c           8  0.49578364999999996        4.7969800906495587E-002  0.49578364999999996        0.0000000000000000        1.5719516493784220E-019
 chl           8   1.2871364376246281E-010   2.5961655605718908E-010  0.49578364999999996     
 chl2c           9  0.28700202499999999        2.4803669054600401E-002  0.28700202499999999        0.0000000000000000        5.4184081042678104E-016
 chl           9   7.4510477311939277E-011   2.5961655605718908E-010  0.28700202499999999     
 chl2c          10  0.39094662499999999        2.5387016219684602E-002  0.39094662499999999        0.0000000000000000        5.4184867389951898E-016
 chl          10   1.0149621638468138E-010   2.5961655605718908E-010  0.39094662499999999     
 chl2c          11  0.49737575000000001        2.1820572217820047E-002  0.49737575000000001        0.0000000000000000        4.1497651202381232E-006
 chl          11   1.2912697928136147E-010   2.5961655605718908E-010  0.49737575000000001     
 chl2c          12  0.30768942500000002        4.5290941298723353E-002  0.30768942500000002        0.0000000000000000        1.2696311422136629E-009
 chl          12   7.9881268853716781E-011   2.5961655605718908E-010  0.30768942500000002     
 chl2c          13  0.75666275000000005        3.7935816987997487E-002  0.75666275000000005        0.0000000000000000        8.4566823801040028E-006
 chl          13   1.9644217725176186E-010   2.5961655605718908E-010  0.75666275000000005     
 chl2c          14  0.39804095000000000        4.6856526101924839E-002  0.39804095000000000        0.0000000000000000        1.7708960971716983E-018
 chl          14   1.0333802060873180E-010   2.5961655605718908E-010  0.39804095000000000     
 chl2c          15  0.25607262500000000        2.0954299823745293E-002  0.25607262500000000        0.0000000000000000        5.4323458438436399E-016
 chl          15   6.6480693003024061E-011   2.5961655605718908E-010  0.25607262500000000     
 chl2c          16  0.71433214999999994        3.7823443882273475E-002  0.71433214999999994        0.0000000000000000        7.5472603240262049E-006
 chl          16   1.8545245266392738E-010   2.5961655605718908E-010  0.71433214999999994     
 chl2c          17  0.62580860000000005        3.7542254757581245E-002  0.62580860000000005        0.0000000000000000        8.5511248015125742E-006
 chl          17   1.6247027348297104E-010   2.5961655605718908E-010  0.62580860000000005     
 chl2c          18  0.47925950000000000        2.5694475239060960E-002  0.47925950000000000        0.0000000000000000        5.4264471959075209E-016
 chl          18   1.2442370084769041E-010   2.5961655605718908E-010  0.47925950000000000     
 chl2c          19  0.63367130000000005        3.7570220750293731E-002  0.63367130000000005        0.0000000000000000        9.2840804349270472E-016
 chl          19   1.6451156057828189E-010   2.5961655605718908E-010  0.63367130000000005     
 chl2c          20  0.50678202500000002        3.7020645196759419E-002  0.50678202500000002        0.0000000000000000        8.6734411273667784E-006
 chl          20   1.3156900400218829E-010   2.5961655605718908E-010  0.50678202500000002     
 chl2c          21  0.71973185000000006        3.7838475073783531E-002  0.71973185000000006        0.0000000000000000        9.3329272539305717E-016
 chl          21   1.8685430418166942E-010   2.5961655605718908E-010  0.71973185000000006     
 chl2c          22  0.64616892500000001        3.7613353106285476E-002  0.64616892500000001        0.0000000000000000        9.3035873598120987E-016
 chl          22   1.6775615093967610E-010   2.5961655605718908E-010  0.64616892500000001     
 chl2c          23  0.41564179999999995        3.2286562315070731E-002  0.41564179999999995        0.0000000000000000        2.1640319112070871E-019
 chl          23   1.0790749266941096E-010   2.5961655605718908E-010  0.41564179999999995     
 chl2c          24  0.57597492500000003        3.7348402796863071E-002  0.57597492500000003        0.0000000000000000        3.9820257008220715E-006
 chl          24   1.4953262640379778E-010   2.5961655605718908E-010  0.57597492500000003     
 chl2c          25  0.31406487500000002        4.5426679235459781E-002  0.31406487500000002        0.0000000000000000        1.6483507687471018E-019
 chl          25   8.1536441226031591E-011   2.5961655605718908E-010  0.31406487500000002     
 chl2c          26  0.49427735000000000        4.7955660680174553E-002  0.49427735000000000        0.0000000000000000        1.3968795916338989E-009
 chl          26   1.2832258334407387E-010   2.5961655605718908E-010  0.49427735000000000     
 chl2c          27  0.30964730000000001        4.5333133499525620E-002  0.30964730000000001        0.0000000000000000        1.6171661444938842E-008
 chl          27   8.0389565618407251E-011   2.5961655605718908E-010  0.30964730000000001     
 chl2c          28  0.28776342500000002        3.1209236063453518E-002  0.28776342500000002        0.0000000000000000        1.6306867798929859E-008
 chl          28   7.4708149357721226E-011   2.5961655605718908E-010  0.28776342500000002     
 chl2c          29  0.68676297499999994        3.7743217595736761E-002  0.68676297499999994        0.0000000000000000        9.3416936067240992E-016
 chl          29   1.7829503839708944E-010   2.5961655605718908E-010  0.68676297499999994     
 chl2c          30  0.38930277499999999        2.5380056985171612E-002  0.38930277499999999        0.0000000000000000        4.9026722863479426E-006
 chl          30   1.0106944570900676E-010   2.5961655605718908E-010  0.38930277499999999     
 chl2c          31  0.63559385000000002        3.7576959810037038E-002  0.63559385000000002        0.0000000000000000        9.3635922540461370E-016
 chl          31   1.6501068638812964E-010   2.5961655605718908E-010  0.63559385000000002     
 chl2c          32  0.24722667500000001        2.0893126428578448E-002  0.24722667500000001        0.0000000000000000        5.4365808198962345E-016
 chl          32   6.4184137928969964E-011   2.5961655605718908E-010  0.24722667500000001     
 chl2c          33  0.60343137499999999        3.7458922634011876E-002  0.60343137499999999        0.0000000000000000        9.2987519926133009E-016
 chl          33   1.5666077539435419E-010   2.5961655605718908E-010  0.60343137499999999     
 chl2c          34  0.38241020000000003        2.5350269098008315E-002  0.38241020000000003        0.0000000000000000        5.3925614937914656E-016
 chl          34   9.9280019125140895E-011   2.5961655605718908E-010  0.38241020000000003     
 chl2c          35  0.49574644999999995        2.5740370148566064E-002  0.49574644999999995        0.0000000000000000        2.6438558103275923E-006
 chl          35   1.2870398602657746E-010   2.5961655605718908E-010  0.49574644999999995     
 chl2c          36  0.69587337500000002        3.7770393924465726E-002  0.69587337500000002        0.0000000000000000        4.1336840068141136E-006
 chl          36   1.8066024906939286E-010   2.5961655605718908E-010  0.69587337500000002     
 chl2c          37  0.33194060000000003        2.1353674699533250E-002  0.33194060000000003        0.0000000000000000        5.3891137590896129E-016
 chl          37   8.6177275387556984E-011   2.5961655605718908E-010  0.33194060000000003     
 chl2c          38  0.38455722500000000        2.1543295686358745E-002  0.38455722500000000        0.0000000000000000        1.7435304597942697E-006
 chl          38   9.9837422361409568E-011   2.5961655605718908E-010  0.38455722500000000     
 chl2c          39  0.47091117500000002        2.5670077108751441E-002  0.47091117500000002        0.0000000000000000        2.9643781811656079E-007
 chl          39   1.2225633746234428E-010   2.5961655605718908E-010  0.47091117500000002     
 chl2c          40  0.66875547499999999        3.7687445774703773E-002  0.66875547499999999        0.0000000000000000        7.5578007185848883E-006
 chl          40   1.7361999326388960E-010   2.5961655605718908E-010  0.66875547499999999     
 chl2c          41  0.44304987499999998        2.5582381488167241E-002  0.44304987499999998        0.0000000000000000        5.3742563721902819E-016
 chl          41   1.1502308270906810E-010   2.5961655605718908E-010  0.44304987499999998     
 chl2c          42  0.76234377499999995        3.7949995630725070E-002  0.76234377499999995        0.0000000000000000        7.0424582438234839E-006
 chl          42   1.9791706539713663E-010   2.5961655605718908E-010  0.76234377499999995     
 chl2c          43  0.29539925000000000        2.1185090152268007E-002  0.29539925000000000        0.0000000000000000        5.4366016314360402E-016
 chl          43   7.6690535946876608E-011   2.5961655605718908E-010  0.29539925000000000     
 chl2c          44  0.62417262500000004        3.7536352708156646E-002  0.62417262500000004        0.0000000000000000        8.6466903940455926E-006
 chl          44   1.6204554728767537E-010   2.5961655605718908E-010  0.62417262500000004     
 chl2c          45  0.37662252499999999        4.6544927192009838E-002  0.37662252499999999        0.0000000000000000        1.9925120127813452E-019
 chl          45   9.7777442874062593E-011   2.5961655605718908E-010  0.37662252499999999     
 chl2c          46  0.51876034999999998        3.7083195475449568E-002  0.51876034999999998        0.0000000000000000        9.3633230130043893E-016
 chl          46   1.3467877548602203E-010   2.5961655605718908E-010  0.51876034999999998     
 chl2c          47  0.61962282499999999        3.7519784612651236E-002  0.61962282499999999        0.0000000000000000        8.7155020779145140E-006
 chl          47   1.6086434388092634E-010   2.5961655605718908E-010  0.61962282499999999     
 chl2c          48  0.71424949999999998        3.7823212136301673E-002  0.71424949999999998        0.0000000000000000        8.0671108056829774E-006
 chl          48   1.8543099535556926E-010   2.5961655605718908E-010  0.71424949999999998     
 chl2c          49  0.53276120000000005        3.7152990741888416E-002  0.53276120000000005        0.0000000000000000        8.6958168037892144E-006
 chl          49   1.3831362794489533E-010   2.5961655605718908E-010  0.53276120000000005     
 chl2c          50  0.38132569999999999        2.1533072915600981E-002  0.38132569999999999        0.0000000000000000        5.4081548172883147E-016
 chl          50   9.8998464970096859E-011   2.5961655605718908E-010  0.38132569999999999     
 chl2c          51  0.22275920000000002        2.0700971146093840E-002  0.22275920000000002        0.0000000000000000        2.0642619598049164E-006
 chl          51   5.7831976334054595E-011   2.5961655605718908E-010  0.22275920000000002     
 chl2c          52  0.63698869999999996        3.7581825176985564E-002  0.63698869999999996        0.0000000000000000        8.1996511213780711E-006
 chl          52   1.6537281254134599E-010   2.5961655605718908E-010  0.63698869999999996     
 chl2c          53  0.75269794999999995        3.7925801262726190E-002  0.75269794999999995        0.0000000000000000        6.4625016395362194E-006
 chl          53   1.9541284953030628E-010   2.5961655605718908E-010  0.75269794999999995     
 chl2c          54  0.51861124999999997        3.7082433371327092E-002  0.51861124999999997        0.0000000000000000        8.6587671799548268E-006
 chl          54   1.3464006665751389E-010   2.5961655605718908E-010  0.51861124999999997     
 chl2c          55  0.57808280000000001        3.7357235588660491E-002  0.57808280000000001        0.0000000000000000        9.3785076601066897E-016
 chl          55   1.5007986565189683E-010   2.5961655605718908E-010  0.57808280000000001     
 chl2c          56  0.61626080000000005        3.7507394187257688E-002  0.61626080000000005        0.0000000000000000        3.0164853053024045E-006
 chl          56   1.5999150652904819E-010   2.5961655605718908E-010  0.61626080000000005     
 chl2c          57  0.68163462500000005        3.7727617852646313E-002  0.68163462500000005        0.0000000000000000        9.3832806498680291E-016
 chl          57   1.7696363383183358E-010   2.5961655605718908E-010  0.68163462500000005     
 chl2c          58  0.69416802499999997        3.7765358178394853E-002  0.69416802499999997        0.0000000000000000        9.3035873598120987E-016
 chl          58   1.8021751197552071E-010   2.5961655605718908E-010  0.69416802499999997     
 chl2c          59  0.53705127500000005        3.7173699120809672E-002  0.53705127500000005        0.0000000000000000        9.3909862132222778E-016
 chl          59   1.3942740244162239E-010   2.5961655605718908E-010  0.53705127500000005     
 chl2c          60  0.64452155000000000        3.7607757740906807E-002  0.64452155000000000        0.0000000000000000        9.2749835364997745E-016
 chl          60   1.6732846511564139E-010   2.5961655605718908E-010  0.64452155000000000     
 chl2c          61  0.70794139999999994        3.7805373434125003E-002  0.70794139999999994        0.0000000000000000        6.0477829426713330E-006
 chl          61   1.8379330815830491E-010   2.5961655605718908E-010  0.70794139999999994     
 chl2c          62  0.76481592499999995        3.7956103087269030E-002  0.76481592499999995        0.0000000000000000        7.9290618102670485E-006
 chl          62   1.9855887646619339E-010   2.5961655605718908E-010  0.76481592499999995     
 chl2c          63  0.72597904999999996        3.7855601011927406E-002  0.72597904999999996        0.0000000000000000        9.2795665494412045E-016
 chl          63   1.8847618073066985E-010   2.5961655605718908E-010  0.72597904999999996     
 chl2c          64  0.48435739999999999        2.5708982294816416E-002  0.48435739999999999        0.0000000000000000        3.3471624293575520E-006
 chl          64   1.2574720008881435E-010   2.5961655605718908E-010  0.48435739999999999     
 chl2c          65  0.76379975000000000        3.7953597170552002E-002  0.76379975000000000        0.0000000000000000        9.3035873598120987E-016
 chl          65   1.9829506061234200E-010   2.5961655605718908E-010  0.76379975000000000     
 chl2c          66  0.35213202499999996        3.1840477731474713E-002  0.35213202499999996        0.0000000000000000        7.9322384419602485E-010
 chl          66   9.1419303607943989E-011   2.5961655605718908E-010  0.35213202499999996     
 chl2c          67  0.75736760000000003        3.7937587124568600E-002  0.75736760000000003        0.0000000000000000        8.6990797603304162E-006
 chl          67   1.9662516798129876E-010   2.5961655605718908E-010  0.75736760000000003     
 chl2c          68  0.72590779999999999        3.7855407263856986E-002  0.72590779999999999        0.0000000000000000        9.3035873598120987E-016
 chl          68   1.8845768305105080E-010   2.5961655605718908E-010  0.72590779999999999     
 chl2c          69  0.45524217500000003        2.1732330561541505E-002  0.45524217500000003        0.0000000000000000        5.3964195078796286E-016
 chl          69   1.1818840564548420E-010   2.5961655605718908E-010  0.45524217500000003     
 chl2c          70  0.48694062500000002        3.2658010878182209E-002  0.48694062500000002        0.0000000000000000        2.0173860039248083E-008
 chl          70   1.2641784806683520E-010   2.5961655605718908E-010  0.48694062500000002     
 chl2c          71  0.23986107500000001        4.3481058864416305E-002  0.23986107500000001        0.0000000000000000        1.8323983705062687E-019
 chl          71   6.2271906223675141E-011   2.5961655605718908E-010  0.23986107500000001     
 chl2c          72  0.62790522500000001        3.7549776402781669E-002  0.62790522500000001        0.0000000000000000        8.4384602747299555E-006
 chl          72   1.6301459204481442E-010   2.5961655605718908E-010  0.62790522500000001     
 chl2c          73  0.35362212500000001        3.1852614277819484E-002  0.35362212500000001        0.0000000000000000        1.5432946225410268E-010
 chl          73   9.1806158238124822E-011   2.5961655605718908E-010  0.35362212500000001     
 chl2c          74  0.64719590000000005        3.7616827685877569E-002  0.64719590000000005        0.0000000000000000        9.3433171110298633E-016
 chl          74   1.6802277065233295E-010   2.5961655605718908E-010  0.64719590000000005     
 chl2c          75  0.71554212500000003        3.7826830779512356E-002  0.71554212500000003        0.0000000000000000        4.6790533024750949E-006
 chl          75   1.8576658220634271E-010   2.5961655605718908E-010  0.71554212500000003     
 chl2c          76  0.55513977500000000        3.7257729557919804E-002  0.55513977500000000        0.0000000000000000        9.3035873598120987E-016
 chl          76   1.4412347651586282E-010   2.5961655605718908E-010  0.55513977500000000     
 chl2c          77  0.52973029999999999        3.7138172437479272E-002  0.52973029999999999        0.0000000000000000        9.2657778404485645E-016
 chl          77   1.3752675612514157E-010   2.5961655605718908E-010  0.52973029999999999     
 chl2c          78  0.45117492500000000        4.7515248899399322E-002  0.45117492500000000        0.0000000000000000        2.2281327800539310E-018
 chl          78   1.1713248020786058E-010   2.5961655605718908E-010  0.45117492500000000     
 prod   7.4372110217994386E-010   0.0000000000000000        10.000000000000000     
 chl2c           1  0.60826437499999997        3.7477407714772232E-002  0.60826437499999997        0.0000000000000000        9.3573127378285851E-016
 chl           1   7.5009492555306408E-010   1.2331725420431931E-009  0.60826437499999997     
 chl2c           2  0.48302390000000001        3.2640259920490348E-002  0.48302390000000001        0.0000000000000000        1.1021213560063384E-019
 chl           2   5.9565181063061707E-010   1.2331725420431931E-009  0.48302390000000001     
 chl2c           3  0.75128689999999998        3.7922212503796585E-002  0.75128689999999998        0.0000000000000000        7.1681822236094587E-006
 chl           3   9.2646637627675016E-010   1.2331725420431931E-009  0.75128689999999998     
 chl2c           4  0.77318742499999993        3.7976509103863923E-002  0.77318742499999993        0.0000000000000000        9.3825302901426669E-016
 chl           4   9.5347350236308057E-010   1.2331725420431931E-009  0.77318742499999993     
 chl2c           5  0.48489679999999996        2.5710500362372445E-002  0.48489679999999996        0.0000000000000000        5.3956964183503835E-016
 chl           5   5.9796141948460980E-010   1.2331725420431931E-009  0.48489679999999996     
 chl2c           6  0.29222855000000003        3.1261039902252048E-002  0.29222855000000003        0.0000000000000000        1.5869299315312541E-018
 chl           6   3.6036822386109639E-010   1.2331725420431931E-009  0.29222855000000003     
 chl2c           7  0.22770740000000000        4.3064391842467263E-002  0.22770740000000000        0.0000000000000000        1.0754383488919236E-019
 chl           7   2.8080251330004622E-010   1.2331725420431931E-009  0.22770740000000000     
 chl2c           8  0.49578364999999996        4.7969800906495587E-002  0.49578364999999996        0.0000000000000000        1.1427159596832055E-019
 chl           8   6.1138678397395270E-010   1.2331725420431931E-009  0.49578364999999996     
 chl2c           9  0.28700202499999999        2.4803669054600401E-002  0.28700202499999999        0.0000000000000000        5.4184081042678104E-016
 chl           9   3.5392301674079404E-010   1.2331725420431931E-009  0.28700202499999999     
 chl2c          10  0.39094662499999999        2.5387016219684602E-002  0.39094662499999999        0.0000000000000000        5.4184867389951898E-016
 chl          10   4.8210464335445697E-010   1.2331725420431931E-009  0.39094662499999999     
 chl2c          11  0.49737575000000001        2.1820572217820047E-002  0.49737575000000001        0.0000000000000000        4.5880261369873701E-006
 chl          11   6.1335011797813967E-010   1.2331725420431931E-009  0.49737575000000001     
 chl2c          12  0.30768942500000002        4.5290941298723353E-002  0.30768942500000002        0.0000000000000000        5.8816116249351110E-010
 chl          12   3.7943415038705842E-010   1.2331725420431931E-009  0.30768942500000002     
 chl2c          13  0.75666275000000005        3.7935816987997487E-002  0.75666275000000005        0.0000000000000000        7.2643872704838820E-006
 chl          13   9.3309572688689317E-010   1.2331725420431931E-009  0.75666275000000005     
 chl2c          14  0.39804095000000000        4.6856526101924839E-002  0.39804095000000000        0.0000000000000000        1.5742557557549455E-009
 chl          14   4.9085317014878753E-010   1.2331725420431931E-009  0.39804095000000000     
 chl2c          15  0.25607262500000000        2.0954299823745293E-002  0.25607262500000000        0.0000000000000000        5.4323458438436399E-016
 chl          15   3.1578172991892335E-010   1.2331725420431931E-009  0.25607262500000000     
 chl2c          16  0.71433214999999994        3.7823443882273475E-002  0.71433214999999994        0.0000000000000000        5.5526776832087774E-006
 chl          16   8.8089479327867944E-010   1.2331725420431931E-009  0.71433214999999994     
 chl2c          17  0.62580860000000005        3.7542254757581245E-002  0.62580860000000005        0.0000000000000000        8.2298511807965109E-006
 chl          17   7.7172998209449193E-010   1.2331725420431931E-009  0.62580860000000005     
 chl2c          18  0.47925950000000000        2.5694475239060960E-002  0.47925950000000000        0.0000000000000000        1.3386197619002704E-006
 chl          18   5.9100965591334969E-010   1.2331725420431931E-009  0.47925950000000000     
 chl2c          19  0.63367130000000005        3.7570220750293731E-002  0.63367130000000005        0.0000000000000000        9.2840804349270472E-016
 chl          19   7.8142604784081494E-010   1.2331725420431931E-009  0.63367130000000005     
 chl2c          20  0.50678202500000002        3.7020645196759419E-002  0.50678202500000002        0.0000000000000000        7.8266874114330271E-006
 chl          20   6.2494967803104712E-010   1.2331725420431931E-009  0.50678202500000002     
 chl2c          21  0.71973185000000006        3.7838475073783531E-002  0.71973185000000006        0.0000000000000000        9.3329272539305717E-016
 chl          21   8.8755355505395029E-010   1.2331725420431931E-009  0.71973185000000006     
 chl2c          22  0.64616892500000001        3.7613353106285476E-002  0.64616892500000001        0.0000000000000000        9.3808881612213338E-016
 chl          22   7.9683777583156738E-010   1.2331725420431931E-009  0.64616892500000001     
 chl2c          23  0.41564179999999995        3.2286562315070731E-002  0.41564179999999995        0.0000000000000000        1.5731694833686415E-019
 chl          23   5.1255805508540842E-010   1.2331725420431931E-009  0.41564179999999995     
 chl2c          24  0.57597492500000003        3.7348402796863071E-002  0.57597492500000003        0.0000000000000000        5.8744646650696984E-006
 chl          24   7.1027646241538755E-010   1.2331725420431931E-009  0.57597492500000003     
 chl2c          25  0.31406487500000002        4.5426679235459781E-002  0.31406487500000002        0.0000000000000000        1.1982581417324757E-019
 chl          25   3.8729618027022769E-010   1.2331725420431931E-009  0.31406487500000002     
 chl2c          26  0.49427735000000000        4.7955660680174553E-002  0.49427735000000000        0.0000000000000000        9.5518972014313976E-010
 chl          26   6.0952925617387305E-010   1.2331725420431931E-009  0.49427735000000000     
 chl2c          27  0.30964730000000001        4.5333133499525620E-002  0.30964730000000001        0.0000000000000000        1.0527142749925847E-008
 chl          27   3.8184854807781127E-010   1.2331725420431931E-009  0.30964730000000001     
 chl2c          28  0.28776342500000002        3.1209236063453518E-002  0.28776342500000002        0.0000000000000000        1.0451113320753848E-008
 chl          28   3.5486195431430576E-010   1.2331725420431931E-009  0.28776342500000002     
 chl2c          29  0.68676297499999994        3.7743217595736761E-002  0.68676297499999994        0.0000000000000000        9.3416936067240992E-016
 chl          29   8.4689724366189585E-010   1.2331725420431931E-009  0.68676297499999994     
 chl2c          30  0.38930277499999999        2.5380056985171612E-002  0.38930277499999999        0.0000000000000000        4.7651286793480008E-006
 chl          30   4.8007749267121926E-010   1.2331725420431931E-009  0.38930277499999999     
 chl2c          31  0.63559385000000002        3.7576959810037038E-002  0.63559385000000002        0.0000000000000000        9.3635922540461370E-016
 chl          31   7.8379688371151999E-010   1.2331725420431931E-009  0.63559385000000002     
 chl2c          32  0.24722667500000001        2.0893126428578448E-002  0.24722667500000001        0.0000000000000000        5.4365808198962345E-016
 chl          32   3.0487314727063637E-010   1.2331725420431931E-009  0.24722667500000001     
 chl2c          33  0.60343137499999999        3.7458922634011876E-002  0.60343137499999999        0.0000000000000000        9.2987519926133009E-016
 chl          33   7.4413500265736935E-010   1.2331725420431931E-009  0.60343137499999999     
 chl2c          34  0.38241020000000003        2.5350269098008315E-002  0.38241020000000003        0.0000000000000000        5.3925614937914656E-016
 chl          34   4.7157775843724591E-010   1.2331725420431931E-009  0.38241020000000003     
 chl2c          35  0.49574644999999995        2.5740370148566064E-002  0.49574644999999995        0.0000000000000000        3.9412227138459574E-006
 chl          35   6.1134090995538870E-010   1.2331725420431931E-009  0.49574644999999995     
 chl2c          36  0.69587337500000002        3.7770393924465726E-002  0.69587337500000002        0.0000000000000000        5.9874490630601438E-006
 chl          36   8.5813193878892618E-010   1.2331725420431931E-009  0.69587337500000002     
 chl2c          37  0.33194060000000003        2.1353674699533250E-002  0.33194060000000003        0.0000000000000000        2.4833290312991844E-007
 chl          37   4.0934003350934279E-010   1.2331725420431931E-009  0.33194060000000003     
 chl2c          38  0.38455722500000000        2.1543295686358745E-002  0.38455722500000000        0.0000000000000000        3.4160797821287434E-006
 chl          38   4.7422541071432614E-010   1.2331725420431931E-009  0.38455722500000000     
 chl2c          39  0.47091117500000002        2.5670077108751441E-002  0.47091117500000002        0.0000000000000000        2.2084660993090015E-006
 chl          39   5.8071473075129696E-010   1.2331725420431931E-009  0.47091117500000002     
 chl2c          40  0.66875547499999999        3.7687445774703773E-002  0.66875547499999999        0.0000000000000000        5.5703896888499365E-006
 chl          40   8.2469088911105309E-010   1.2331725420431931E-009  0.66875547499999999     
 chl2c          41  0.44304987499999998        2.5582381488167241E-002  0.44304987499999998        0.0000000000000000        5.3742563721902819E-016
 chl          41   5.4635694060566896E-010   1.2331725420431931E-009  0.44304987499999998     
 chl2c          42  0.76234377499999995        3.7949995630725070E-002  0.76234377499999995        0.0000000000000000        4.6897723563589460E-006
 chl          42   9.4010141092755398E-010   1.2331725420431931E-009  0.76234377499999995     
 chl2c          43  0.29539925000000000        2.1185090152268007E-002  0.29539925000000000        0.0000000000000000        5.4366016314360402E-016
 chl          43   3.6427824404015269E-010   1.2331725420431931E-009  0.29539925000000000     
 chl2c          44  0.62417262500000004        3.7536352708156646E-002  0.62417262500000004        0.0000000000000000        7.9082501006824680E-006
 chl          44   7.6971254264502278E-010   1.2331725420431931E-009  0.62417262500000004     
 chl2c          45  0.37662252499999999        4.6544927192009838E-002  0.37662252499999999        0.0000000000000000        1.4484686813771201E-019
 chl          45   4.6444055654497604E-010   1.2331725420431931E-009  0.37662252499999999     
 chl2c          46  0.51876034999999998        3.7083195475449568E-002  0.51876034999999998        0.0000000000000000        9.3633230130043893E-016
 chl          46   6.3972101952071660E-010   1.2331725420431931E-009  0.51876034999999998     
 chl2c          47  0.61962282499999999        3.7519784612651236E-002  0.61962282499999999        0.0000000000000000        8.2275070177967022E-006
 chl          47   7.6410185421323457E-010   1.2331725420431931E-009  0.61962282499999999     
 chl2c          48  0.71424949999999998        3.7823212136301673E-002  0.71424949999999998        0.0000000000000000        6.3881176205724620E-006
 chl          48   8.8079287156807965E-010   1.2331725420431931E-009  0.71424949999999998     
 chl2c          49  0.53276120000000005        3.7152990741888416E-002  0.53276120000000005        0.0000000000000000        8.1975788518036849E-006
 chl          49   6.5698648330598206E-010   1.2331725420431931E-009  0.53276120000000005     
 chl2c          50  0.38132569999999999        2.1533072915600981E-002  0.38132569999999999        0.0000000000000000        5.4081548172883147E-016
 chl          50   4.7024038281540006E-010   1.2331725420431931E-009  0.38132569999999999     
 chl2c          51  0.22275920000000002        2.0700971146093840E-002  0.22275920000000002        0.0000000000000000        3.6263258097861129E-006
 chl          51   2.7470052892750810E-010   1.2331725420431931E-009  0.22275920000000002     
 chl2c          52  0.63698869999999996        3.7581825176985564E-002  0.63698869999999996        0.0000000000000000        6.7652156740098687E-006
 chl          52   7.8551697443178892E-010   1.2331725420431931E-009  0.63698869999999996     
 chl2c          53  0.75269794999999995        3.7925801262726190E-002  0.75269794999999995        0.0000000000000000        3.9139351323830917E-006
 chl          53   9.2820644439220022E-010   1.2331725420431931E-009  0.75269794999999995     
 chl2c          54  0.51861124999999997        3.7082433371327092E-002  0.51861124999999997        0.0000000000000000        8.1562101791751636E-006
 chl          54   6.3953715349469795E-010   1.2331725420431931E-009  0.51861124999999997     
 chl2c          55  0.57808280000000001        3.7357235588660491E-002  0.57808280000000001        0.0000000000000000        9.3785076601066897E-016
 chl          55   7.1287583598744683E-010   1.2331725420431931E-009  0.57808280000000001     
 chl2c          56  0.61626080000000005        3.7507394187257688E-002  0.61626080000000005        0.0000000000000000        5.2150551166374114E-006
 chl          56   7.5995589729757185E-010   1.2331725420431931E-009  0.61626080000000005     
 chl2c          57  0.68163462500000005        3.7727617852646313E-002  0.68163462500000005        0.0000000000000000        9.3832806498680291E-016
 chl          57   8.4057310325590870E-010   1.2331725420431931E-009  0.68163462500000005     
 chl2c          58  0.69416802499999997        3.7765358178394853E-002  0.69416802499999997        0.0000000000000000        9.3738707452186901E-016
 chl          58   8.5602894799435281E-010   1.2331725420431931E-009  0.69416802499999997     
 chl2c          59  0.53705127500000005        3.7173699120809672E-002  0.53705127500000005        0.0000000000000000        9.3909862132222778E-016
 chl          59   6.6227688599928804E-010   1.2331725420431931E-009  0.53705127500000005     
 chl2c          60  0.64452155000000000        3.7607757740906807E-002  0.64452155000000000        0.0000000000000000        9.2749835364997745E-016
 chl          60   7.9480627821511902E-010   1.2331725420431931E-009  0.64452155000000000     
 chl2c          61  0.70794139999999994        3.7805373434125003E-002  0.70794139999999994        0.0000000000000000        7.1718590743954046E-006
 chl          61   8.7301389585561696E-010   1.2331725420431931E-009  0.70794139999999994     
 chl2c          62  0.76481592499999995        3.7956103087269030E-002  0.76481592499999995        0.0000000000000000        6.2021602876645068E-006
 chl          62   9.4314999842736608E-010   1.2331725420431931E-009  0.76481592499999995     
 chl2c          63  0.72597904999999996        3.7855601011927406E-002  0.72597904999999996        0.0000000000000000        9.2795665494412045E-016
 chl          63   8.9525743055860230E-010   1.2331725420431931E-009  0.72597904999999996     
 chl2c          64  0.48435739999999999        2.5708982294816416E-002  0.48435739999999999        0.0000000000000000        4.2626689926844238E-006
 chl          64   5.9729624621543171E-010   1.2331725420431931E-009  0.48435739999999999     
 chl2c          65  0.76379975000000000        3.7953597170552002E-002  0.76379975000000000        0.0000000000000000        9.3121429485870950E-016
 chl          65   9.4189687931945533E-010   1.2331725420431931E-009  0.76379975000000000     
 chl2c          66  0.35213202499999996        3.1840477731474713E-002  0.35213202499999996        0.0000000000000000        8.6581863191451223E-010
 chl          66   4.3423954440406717E-010   1.2331725420431931E-009  0.35213202499999996     
 chl2c          67  0.75736760000000003        3.7937587124568600E-002  0.75736760000000003        0.0000000000000000        8.1960338793023134E-006
 chl          67   9.3396492855315232E-010   1.2331725420431931E-009  0.75736760000000003     
 chl2c          68  0.72590779999999999        3.7855407263856986E-002  0.72590779999999999        0.0000000000000000        9.3825302901426669E-016
 chl          68   8.9516956701498183E-010   1.2331725420431931E-009  0.72590779999999999     
 chl2c          69  0.45524217500000003        2.1732330561541505E-002  0.45524217500000003        0.0000000000000000        5.3964195078796286E-016
 chl          69   5.6139215019002223E-010   1.2331725420431931E-009  0.45524217500000003     
 chl2c          70  0.48694062500000002        3.2658010878182209E-002  0.48694062500000002        0.0000000000000000        1.2930455627016632E-008
 chl          70   6.0048180835535130E-010   1.2331725420431931E-009  0.48694062500000002     
 chl2c          71  0.23986107500000001        4.3481058864416305E-002  0.23986107500000001        0.0000000000000000        1.3320625288978484E-019
 chl          71   2.9579009159496300E-010   1.2331725420431931E-009  0.23986107500000001     
 chl2c          72  0.62790522500000001        3.7549776402781669E-002  0.62790522500000001        0.0000000000000000        7.3082710479185806E-006
 chl          72   7.7431548247545316E-010   1.2331725420431931E-009  0.62790522500000001     
 chl2c          73  0.35362212500000001        3.1852614277819484E-002  0.35362212500000001        0.0000000000000000        6.4040832674104711E-010
 chl          73   4.3607709480896578E-010   1.2331725420431931E-009  0.35362212500000001     
 chl2c          74  0.64719590000000005        3.7616827685877569E-002  0.64719590000000005        0.0000000000000000        9.3433171110298633E-016
 chl          74   7.9810421320293226E-010   1.2331725420431931E-009  0.64719590000000005     
 chl2c          75  0.71554212500000003        3.7826830779512356E-002  0.71554212500000003        0.0000000000000000        6.3542299229981292E-006
 chl          75   8.8238690122523826E-010   1.2331725420431931E-009  0.71554212500000003     
 chl2c          76  0.55513977500000000        3.7257729557919804E-002  0.55513977500000000        0.0000000000000000        9.3441853230459223E-016
 chl          76   6.8458312752603629E-010   1.2331725420431931E-009  0.55513977500000000     
 chl2c          77  0.52973029999999999        3.7138172437479272E-002  0.52973029999999999        0.0000000000000000        9.2657778404485645E-016
 chl          77   6.5324886064830330E-010   1.2331725420431931E-009  0.52973029999999999     
 chl2c          78  0.45117492500000000        4.7515248899399322E-002  0.45117492500000000        0.0000000000000000        1.5218341544591898E-018
 chl          78   5.5637652916839702E-010   1.2331725420431931E-009  0.45117492500000000     
 prod   5.4059917932527109E-010   0.0000000000000000        10.000000000000000     
 chl2c           1  0.60826437499999997        3.7477407714772232E-002  0.60826437499999997        0.0000000000000000        9.3573127378285851E-016
 chl           1   2.0574086155247207E-010   3.3824249784885409E-010  0.60826437499999997     
 chl2c           2  0.48302390000000001        3.2640259920490348E-002  0.48302390000000001        0.0000000000000000        4.8752669374458759E-020
 chl           2   1.6337921045669511E-010   3.3824249784885409E-010  0.48302390000000001     
 chl2c           3  0.75128689999999998        3.7922212503796585E-002  0.75128689999999998        0.0000000000000000        7.3531488275659359E-006
 chl           3   2.5411715765712223E-010   3.3824249784885409E-010  0.75128689999999998     
 chl2c           4  0.77318742499999993        3.7976509103863923E-002  0.77318742499999993        0.0000000000000000        9.3841762755724212E-016
 chl           4   2.6152484593732350E-010   3.3824249784885409E-010  0.77318742499999993     
 chl2c           5  0.48489679999999996        2.5710500362372445E-002  0.48489679999999996        0.0000000000000000        5.3956964183503835E-016
 chl           5   1.6401270483091621E-010   3.3824249784885409E-010  0.48489679999999996     
 chl2c           6  0.29222855000000003        3.1261039902252048E-002  0.29222855000000003        0.0000000000000000        6.4880524612597497E-019
 chl           6   9.8844114694748765E-011   3.3824249784885409E-010  0.29222855000000003     
 chl2c           7  0.22770740000000000        4.3064391842467263E-002  0.22770740000000000        0.0000000000000000        4.7572210076576584E-020
 chl           7   7.7020319754668156E-011   3.3824249784885409E-010  0.22770740000000000     
 chl2c           8  0.49578364999999996        4.7969800906495587E-002  0.49578364999999996        0.0000000000000000        5.0548591528736510E-020
 chl           8   1.6769510016862202E-010   3.3824249784885409E-010  0.49578364999999996     
 chl2c           9  0.28700202499999999        2.4803669054600401E-002  0.28700202499999999        0.0000000000000000        5.4184081042678104E-016
 chl           9   9.7076281823679268E-011   3.3824249784885409E-010  0.28700202499999999     
 chl2c          10  0.39094662499999999        2.5387016219684602E-002  0.39094662499999999        0.0000000000000000        5.4184867389951898E-016
 chl          10   1.3223476296557927E-010   3.3824249784885409E-010  0.39094662499999999     
 chl2c          11  0.49737575000000001        2.1820572217820047E-002  0.49737575000000001        0.0000000000000000        4.5799015805240553E-006
 chl          11   1.6823361604944719E-010   3.3824249784885409E-010  0.49737575000000001     
 chl2c          12  0.30768942500000002        4.5290941298723353E-002  0.30768942500000002        0.0000000000000000        1.9096651602570127E-010
 chl          12   1.0407363967367765E-010   3.3824249784885409E-010  0.30768942500000002     
 chl2c          13  0.75666275000000005        3.7935816987997487E-002  0.75666275000000005        0.0000000000000000        6.6762390272125620E-006
 chl          13   2.5593549858918304E-010   3.3824249784885409E-010  0.75666275000000005     
 chl2c          14  0.39804095000000000        4.6856526101924839E-002  0.39804095000000000        0.0000000000000000        1.2742196518822392E-009
 chl          14   1.3463436517413084E-010   3.3824249784885409E-010  0.39804095000000000     
 chl2c          15  0.25607262500000000        2.0954299823745293E-002  0.25607262500000000        0.0000000000000000        5.4323458438436399E-016
 chl          15   8.6614644310712914E-011   3.3824249784885409E-010  0.25607262500000000     
 chl2c          16  0.71433214999999994        3.7823443882273475E-002  0.71433214999999994        0.0000000000000000        4.6388070932503793E-006
 chl          16   2.4161749070974229E-010   3.3824249784885409E-010  0.71433214999999994     
 chl2c          17  0.62580860000000005        3.7542254757581245E-002  0.62580860000000005        0.0000000000000000        8.0532668139257395E-006
 chl          17   2.1167506403929439E-010   3.3824249784885409E-010  0.62580860000000005     
 chl2c          18  0.47925950000000000        2.5694475239060960E-002  0.47925950000000000        0.0000000000000000        2.0206780738230873E-006
 chl          18   1.6210593039779290E-010   3.3824249784885409E-010  0.47925950000000000     
 chl2c          19  0.63367130000000005        3.7570220750293731E-002  0.63367130000000005        0.0000000000000000        9.2840804349270472E-016
 chl          19   2.1433456332713060E-010   3.3824249784885409E-010  0.63367130000000005     
 chl2c          20  0.50678202500000002        3.7020645196759419E-002  0.50678202500000002        0.0000000000000000        7.4097154354556493E-006
 chl          20   1.7141521800090042E-010   3.3824249784885409E-010  0.50678202500000002     
 chl2c          21  0.71973185000000006        3.7838475073783531E-002  0.71973185000000006        0.0000000000000000        9.3329272539305717E-016
 chl          21   2.4344389872537681E-010   3.3824249784885409E-010  0.71973185000000006     
 chl2c          22  0.64616892500000001        3.7613353106285476E-002  0.64616892500000001        0.0000000000000000        9.3808881612213338E-016
 chl          22   2.1856179122430887E-010   3.3824249784885409E-010  0.64616892500000001     
 chl2c          23  0.41564179999999995        3.2286562315070731E-002  0.41564179999999995        0.0000000000000000        6.9592942330903696E-020
 chl          23   1.4058772064239382E-010   3.3824249784885409E-010  0.41564179999999995     
 chl2c          24  0.57597492500000003        3.7348402796863071E-002  0.57597492500000003        0.0000000000000000        6.3264352366112550E-006
 chl          24   1.9481919733030640E-010   3.3824249784885409E-010  0.57597492500000003     
 chl2c          25  0.31406487500000002        4.5426679235459781E-002  0.31406487500000002        0.0000000000000000        5.3005824674954125E-020
 chl          25   1.0623008780658814E-010   3.3824249784885409E-010  0.31406487500000002     
 chl2c          26  0.49427735000000000        4.7955660680174553E-002  0.49427735000000000        0.0000000000000000        4.1282289534658831E-010
 chl          26   1.6718560549411229E-010   3.3824249784885409E-010  0.49427735000000000     
 chl2c          27  0.30964730000000001        4.5333133499525620E-002  0.30964730000000001        0.0000000000000000        4.2057375638671085E-009
 chl          27   1.0473587620415348E-010   3.3824249784885409E-010  0.30964730000000001     
 chl2c          28  0.28776342500000002        3.1209236063453518E-002  0.28776342500000002        0.0000000000000000        4.1573497906962574E-009
 chl          28   9.7333819661541394E-011   3.3824249784885409E-010  0.28776342500000002     
 chl2c          29  0.68676297499999994        3.7743217595736761E-002  0.68676297499999994        0.0000000000000000        9.3416936067240992E-016
 chl          29   2.3229242409411011E-010   3.3824249784885409E-010  0.68676297499999994     
 chl2c          30  0.38930277499999999        2.5380056985171612E-002  0.38930277499999999        0.0000000000000000        4.6645666814128031E-006
 chl          30   1.3167874303549043E-010   3.3824249784885409E-010  0.38930277499999999     
 chl2c          31  0.63559385000000002        3.7576959810037038E-002  0.63559385000000002        0.0000000000000000        9.3635922540461370E-016
 chl          31   2.1498485144136991E-010   3.3824249784885409E-010  0.63559385000000002     
 chl2c          32  0.24722667500000001        2.0893126428578448E-002  0.24722667500000001        0.0000000000000000        5.4365808198962345E-016
 chl          32   8.3622568086866851E-011   3.3824249784885409E-010  0.24722667500000001     
 chl2c          33  0.60343137499999999        3.7458922634011876E-002  0.60343137499999999        0.0000000000000000        9.2987519926133009E-016
 chl          33   2.0410613556036857E-010   3.3824249784885409E-010  0.60343137499999999     
 chl2c          34  0.38241020000000003        2.5350269098008315E-002  0.38241020000000003        0.0000000000000000        5.3925614937914656E-016
 chl          34   1.2934738125087988E-010   3.3824249784885409E-010  0.38241020000000003     
 chl2c          35  0.49574644999999995        2.5740370148566064E-002  0.49574644999999995        0.0000000000000000        4.1662002923774868E-006
 chl          35   1.6768251754770204E-010   3.3824249784885409E-010  0.49574644999999995     
 chl2c          36  0.69587337500000002        3.7770393924465726E-002  0.69587337500000002        0.0000000000000000        6.4219352999085958E-006
 chl          36   2.3537394854651235E-010   3.3824249784885409E-010  0.69587337500000002     
 chl2c          37  0.33194060000000003        2.1353674699533250E-002  0.33194060000000003        0.0000000000000000        9.1430796756043720E-007
 chl          37   1.1227641768144734E-010   3.3824249784885409E-010  0.33194060000000003     
 chl2c          38  0.38455722500000000        2.1543295686358745E-002  0.38455722500000000        0.0000000000000000        3.7942061573892818E-006
 chl          38   1.3007359634982381E-010   3.3824249784885409E-010  0.38455722500000000     
 chl2c          39  0.47091117500000002        2.5670077108751441E-002  0.47091117500000002        0.0000000000000000        2.8085437059150377E-006
 chl          39   1.5928217209693885E-010   3.3824249784885409E-010  0.47091117500000002     
 chl2c          40  0.66875547499999999        3.7687445774703773E-002  0.66875547499999999        0.0000000000000000        4.6586249949864508E-006
 chl          40   2.2620152231409688E-010   3.3824249784885409E-010  0.66875547499999999     
 chl2c          41  0.44304987499999998        2.5582381488167241E-002  0.44304987499999998        0.0000000000000000        5.3742563721902809E-016
 chl          41   1.4985829639162257E-010   3.3824249784885409E-010  0.44304987499999998     
 chl2c          42  0.76234377499999995        3.7949995630725070E-002  0.76234377499999995        0.0000000000000000        3.7002656784841545E-006
 chl          42   2.5785706267552480E-010   3.3824249784885409E-010  0.76234377499999995     
 chl2c          43  0.29539925000000000        2.1185090152268007E-002  0.29539925000000000        0.0000000000000000        5.4366016314360402E-016
 chl          43   9.9916580182678113E-011   3.3824249784885409E-010  0.29539925000000000     
 chl2c          44  0.62417262500000004        3.7536352708156646E-002  0.62417262500000004        0.0000000000000000        7.5523795411740247E-006
 chl          44   2.1112170776887612E-010   3.3824249784885409E-010  0.62417262500000004     
 chl2c          45  0.37662252499999999        4.6544927192009838E-002  0.37662252499999999        0.0000000000000000        6.4075693259821796E-020
 chl          45   1.2738974360214248E-010   3.3824249784885409E-010  0.37662252499999999     
 chl2c          46  0.51876034999999998        3.7083195475449568E-002  0.51876034999999998        0.0000000000000000        9.3633230130043893E-016
 chl          46   1.7546679656894579E-010   3.3824249784885409E-010  0.51876034999999998     
 chl2c          47  0.61962282499999999        3.7519784612651236E-002  0.61962282499999999        0.0000000000000000        8.0414696231379288E-006
 chl          47   2.0958277205216339E-010   3.3824249784885409E-010  0.61962282499999999     
 chl2c          48  0.71424949999999998        3.7823212136301673E-002  0.71424949999999998        0.0000000000000000        5.6003340684960918E-006
 chl          48   2.4158953496729513E-010   3.3824249784885409E-010  0.71424949999999998     
 chl2c          49  0.53276120000000005        3.7152990741888416E-002  0.53276120000000005        0.0000000000000000        8.0118133797470767E-006
 chl          49   1.8020247904495295E-010   3.3824249784885409E-010  0.53276120000000005     
 chl2c          50  0.38132569999999999        2.1533072915600981E-002  0.38132569999999999        0.0000000000000000        5.4081548172883147E-016
 chl          50   1.2898055726196278E-010   3.3824249784885409E-010  0.38132569999999999     
 chl2c          51  0.22275920000000002        2.0700971146093840E-002  0.22275920000000002        0.0000000000000000        3.9520859608112464E-006
 chl          51   7.5346628226812467E-011   3.3824249784885409E-010  0.22275920000000002     
 chl2c          52  0.63698869999999996        3.7581825176985564E-002  0.63698869999999996        0.0000000000000000        6.0449965684021280E-006
 chl          52   2.1545664898949436E-010   3.3824249784885409E-010  0.63698869999999996     
 chl2c          53  0.75269794999999995        3.7925801262726190E-002  0.75269794999999995        0.0000000000000000        2.8829780370028668E-006
 chl          53   2.5459443473371185E-010   3.3824249784885409E-010  0.75269794999999995     
 chl2c          54  0.51861124999999997        3.7082433371327092E-002  0.51861124999999997        0.0000000000000000        7.9712540259548092E-006
 chl          54   1.7541636461251651E-010   3.3824249784885409E-010  0.51861124999999997     
 chl2c          55  0.57808280000000001        3.7357235588660491E-002  0.57808280000000001        0.0000000000000000        9.3785076601066897E-016
 chl          55   1.9553217023545954E-010   3.3824249784885409E-010  0.57808280000000001     
 chl2c          56  0.61626080000000005        3.7507394187257688E-002  0.61626080000000005        0.0000000000000000        5.7960021786892088E-006
 chl          56   2.0844559231833312E-010   3.3824249784885409E-010  0.61626080000000005     
 chl2c          57  0.68163462500000005        3.7727617852646313E-002  0.68163462500000005        0.0000000000000000        9.3832806498680291E-016
 chl          57   2.3055779818026699E-010   3.3824249784885409E-010  0.68163462500000005     
 chl2c          58  0.69416802499999997        3.7765358178394853E-002  0.69416802499999997        0.0000000000000000        9.3738707452186901E-016
 chl          58   2.3479712670280580E-010   3.3824249784885409E-010  0.69416802499999997     
 chl2c          59  0.53705127500000005        3.7173699120809672E-002  0.53705127500000005        0.0000000000000000        9.3909862132222778E-016
 chl          59   1.8165356472891187E-010   3.3824249784885409E-010  0.53705127500000005     
 chl2c          60  0.64452155000000000        3.7607757740906807E-002  0.64452155000000000        0.0000000000000000        9.2749835364997745E-016
 chl          60   2.1800457898941510E-010   3.3824249784885409E-010  0.64452155000000000     
 chl2c          61  0.70794139999999994        3.7805373434125003E-002  0.70794139999999994        0.0000000000000000        7.3485746237534978E-006
 chl          61   2.3945586746661475E-010   3.3824249784885409E-010  0.70794139999999994     
 chl2c          62  0.76481592499999995        3.7956103087269030E-002  0.76481592499999995        0.0000000000000000        5.3986212043856411E-006
 chl          62   2.5869324886658184E-010   3.3824249784885409E-010  0.76481592499999995     
 chl2c          63  0.72597904999999996        3.7855601011927406E-002  0.72597904999999996        0.0000000000000000        9.2795665494412045E-016
 chl          63   2.4555696725793812E-010   3.3824249784885409E-010  0.72597904999999996     
 chl2c          64  0.48435739999999999        2.5708982294816416E-002  0.48435739999999999        0.0000000000000000        4.3704522256713072E-006
 chl          64   1.6383025682757656E-010   3.3824249784885409E-010  0.48435739999999999     
 chl2c          65  0.76379975000000000        3.7953597170552002E-002  0.76379975000000000        0.0000000000000000        9.3121429485870950E-016
 chl          65   2.5834953529633031E-010   3.3824249784885409E-010  0.76379975000000000     
 chl2c          66  0.35213202499999996        3.1840477731474713E-002  0.35213202499999996        0.0000000000000000        4.0542369309578851E-010
 chl          66   1.1910601570857511E-010   3.3824249784885409E-010  0.35213202499999996     
 chl2c          67  0.75736760000000003        3.7937587124568600E-002  0.75736760000000003        0.0000000000000000        8.0102037841645829E-006
 chl          67   2.5617390881379178E-010   3.3824249784885409E-010  0.75736760000000003     
 chl2c          68  0.72590779999999999        3.7855407263856986E-002  0.72590779999999999        0.0000000000000000        9.3841762755724212E-016
 chl          68   2.4553286747996639E-010   3.3824249784885409E-010  0.72590779999999999     
 chl2c          69  0.45524217500000003        2.1732330561541505E-002  0.45524217500000003        0.0000000000000000        5.3964195078796286E-016
 chl          69   1.5398225039814518E-010   3.3824249784885409E-010  0.45524217500000003     
 chl2c          70  0.48694062500000002        3.2658010878182209E-002  0.48694062500000002        0.0000000000000000        5.1435922247313697E-009
 chl          70   1.6470401330408216E-010   3.3824249784885409E-010  0.48694062500000002     
 chl2c          71  0.23986107500000001        4.3481058864416305E-002  0.23986107500000001        0.0000000000000000        5.8925557451993468E-020
 chl          71   8.1131209144711334E-011   3.3824249784885409E-010  0.23986107500000001     
 chl2c          72  0.62790522500000001        3.7549776402781669E-002  0.62790522500000001        0.0000000000000000        6.7166872884282506E-006
 chl          72   2.1238423171634675E-010   3.3824249784885409E-010  0.62790522500000001     
 chl2c          73  0.35362212500000001        3.1852614277819484E-002  0.35362212500000001        0.0000000000000000        3.5477628759665507E-010
 chl          73   1.1961003085461971E-010   3.3824249784885409E-010  0.35362212500000001     
 chl2c          74  0.64719590000000005        3.7616827685877569E-002  0.64719590000000005        0.0000000000000000        9.3433171110298633E-016
 chl          74   2.1890915781353719E-010   3.3824249784885409E-010  0.64719590000000005     
 chl2c          75  0.71554212500000003        3.7826830779512356E-002  0.71554212500000003        0.0000000000000000        6.7164105511275289E-006
 chl          75   2.4202675567607701E-010   3.3824249784885409E-010  0.71554212500000003     
 chl2c          76  0.55513977500000000        3.7257729557919804E-002  0.55513977500000000        0.0000000000000000        9.3441853230459223E-016
 chl          76   1.8777186415125083E-010   3.3824249784885409E-010  0.55513977500000000     
 chl2c          77  0.52973029999999999        3.7138172437479272E-002  0.52973029999999999        0.0000000000000000        9.2657778404485645E-016
 chl          77   1.7917729985822283E-010   3.3824249784885409E-010  0.52973029999999999     
 chl2c          78  0.45117492500000000        4.7515248899399322E-002  0.45117492500000000        0.0000000000000000        6.2215503036722555E-019
 chl          78   1.5260653359876941E-010   3.3824249784885409E-010  0.45117492500000000     
 prod   2.3910900262561685E-010   0.0000000000000000        10.000000000000000     
 chl2c           1  0.60826437499999997        3.7477407714772232E-002  0.60826437499999997        0.0000000000000000        9.3573127378285851E-016
 chl           1   2.0574055397109167E-010   3.3824199217830517E-010  0.60826437499999997     
 chl2c           2  0.48302390000000001        3.2640259920490348E-002  0.48302390000000001        0.0000000000000000        4.8752631442402810E-020
 chl           2   1.6337896620573447E-010   3.3824199217830517E-010  0.48302390000000001     
 chl2c           3  0.75128689999999998        3.7922212503796585E-002  0.75128689999999998        0.0000000000000000        7.3531496711898508E-006
 chl           3   2.5411677775346315E-010   3.3824199217830517E-010  0.75128689999999998     
 chl2c           4  0.77318742499999993        3.7976509103863923E-002  0.77318742499999993        0.0000000000000000        9.3841762654151488E-016
 chl           4   2.6152445495921388E-010   3.3824199217830517E-010  0.77318742499999993     
 chl2c           5  0.48489679999999996        2.5710500362372445E-002  0.48489679999999996        0.0000000000000000        5.3956964183503835E-016
 chl           5   1.6401245963288518E-010   3.3824199217830517E-010  0.48489679999999996     
 chl2c           6  0.29222855000000003        3.1261039902252048E-002  0.29222855000000003        0.0000000000000000        6.4880468110556129E-019
 chl           6   9.8843966923377472E-011   3.3824199217830517E-010  0.29222855000000003     
 chl2c           7  0.22770740000000000        4.3064391842467263E-002  0.22770740000000000        0.0000000000000000        4.7572173062898711E-020
 chl           7   7.7020204609742202E-011   3.3824199217830517E-010  0.22770740000000000     
 chl2c           8  0.49578364999999996        4.7969800906495587E-002  0.49578364999999996        0.0000000000000000        5.0548552199489960E-020
 chl           8   1.6769484946543157E-010   3.3824199217830517E-010  0.49578364999999996     
 chl2c           9  0.28700202499999999        2.4803669054600401E-002  0.28700202499999999        0.0000000000000000        5.4184081042678104E-016
 chl           9   9.7076136695207741E-011   3.3824199217830517E-010  0.28700202499999999     
 chl2c          10  0.39094662499999999        2.5387016219684602E-002  0.39094662499999999        0.0000000000000000        5.4184867389951898E-016
 chl          10   1.3223456527538480E-010   3.3824199217830517E-010  0.39094662499999999     
 chl2c          11  0.49737575000000001        2.1820572217820047E-002  0.49737575000000001        0.0000000000000000        4.5799013459919688E-006
 chl          11   1.6823336454117868E-010   3.3824199217830517E-010  0.49737575000000001     
 chl2c          12  0.30768942500000002        4.5290941298723353E-002  0.30768942500000002        0.0000000000000000        1.9096590832019573E-010
 chl          12   1.0407348408419722E-010   3.3824199217830517E-010  0.30768942500000002     
 chl2c          13  0.75666275000000005        3.7935816987997487E-002  0.75666275000000005        0.0000000000000000        6.6762349515731355E-006
 chl          13   2.5593511596711491E-010   3.3824199217830517E-010  0.75666275000000005     
 chl2c          14  0.39804095000000000        4.6856526101924839E-002  0.39804095000000000        0.0000000000000000        1.2742225734120150E-009
 chl          14   1.3463416389654517E-010   3.3824199217830517E-010  0.39804095000000000     
 chl2c          15  0.25607262500000000        2.0954299823745293E-002  0.25607262500000000        0.0000000000000000        5.4323458438436399E-016
 chl          15   8.6614514822328067E-011   3.3824199217830517E-010  0.25607262500000000     
 chl2c          16  0.71433214999999994        3.7823443882273475E-002  0.71433214999999994        0.0000000000000000        4.6388009885840582E-006
 chl          16   2.4161712949301188E-010   3.3824199217830517E-010  0.71433214999999994     
 chl2c          17  0.62580860000000005        3.7542254757581245E-002  0.62580860000000005        0.0000000000000000        8.0532656422252397E-006
 chl          17   2.1167474758631612E-010   3.3824199217830517E-010  0.62580860000000005     
 chl2c          18  0.47925950000000000        2.5694475239060960E-002  0.47925950000000000        0.0000000000000000        2.0206822702313593E-006
 chl          18   1.6210568805037844E-010   3.3824199217830517E-010  0.47925950000000000     
 chl2c          19  0.63367130000000005        3.7570220750293731E-002  0.63367130000000005        0.0000000000000000        9.2840804349270472E-016
 chl          19   2.1433424289821648E-010   3.3824199217830517E-010  0.63367130000000005     
 chl2c          20  0.50678202500000002        3.7020645196759419E-002  0.50678202500000002        0.0000000000000000        7.4097125178366584E-006
 chl          20   1.7141496173615566E-010   3.3824199217830517E-010  0.50678202500000002     
 chl2c          21  0.71973185000000006        3.7838475073783531E-002  0.71973185000000006        0.0000000000000000        9.3329272539305717E-016
 chl          21   2.4344353477817711E-010   3.3824199217830517E-010  0.71973185000000006     
 chl2c          22  0.64616892500000001        3.7613353106285476E-002  0.64616892500000001        0.0000000000000000        9.3808881612213338E-016
 chl          22   2.1856146447571386E-010   3.3824199217830517E-010  0.64616892500000001     
 chl2c          23  0.41564179999999995        3.2286562315070731E-002  0.41564179999999995        0.0000000000000000        6.9592888186103229E-020
 chl          23   1.4058751046457666E-010   3.3824199217830517E-010  0.41564179999999995     
 chl2c          24  0.57597492500000003        3.7348402796863071E-002  0.57597492500000003        0.0000000000000000        6.3264377202375459E-006
 chl          24   1.9481890607674991E-010   3.3824199217830517E-010  0.57597492500000003     
 chl2c          25  0.31406487500000002        4.5426679235459781E-002  0.31406487500000002        0.0000000000000000        5.3005783434045353E-020
 chl          25   1.0622992899323040E-010   3.3824199217830517E-010  0.31406487500000002     
 chl2c          26  0.49427735000000000        4.7955660680174553E-002  0.49427735000000000        0.0000000000000000        4.1282251102366438E-010
 chl          26   1.6718535555261340E-010   3.3824199217830517E-010  0.49427735000000000     
 chl2c          27  0.30964730000000001        4.5333133499525620E-002  0.30964730000000001        0.0000000000000000        4.2057332784563514E-009
 chl          27   1.0473571962463331E-010   3.3824199217830517E-010  0.30964730000000001     
 chl2c          28  0.28776342500000002        3.1209236063453518E-002  0.28776342500000002        0.0000000000000000        4.1573453777711685E-009
 chl          28   9.7333674148052317E-011   3.3824199217830517E-010  0.28776342500000002     
 chl2c          29  0.68676297499999994        3.7743217595736761E-002  0.68676297499999994        0.0000000000000000        9.3416936067240992E-016
 chl          29   2.3229207681829958E-010   3.3824199217830517E-010  0.68676297499999994     
 chl2c          30  0.38930277499999999        2.5380056985171612E-002  0.38930277499999999        0.0000000000000000        4.6645660103953936E-006
 chl          30   1.3167854617654250E-010   3.3824199217830517E-010  0.38930277499999999     
 chl2c          31  0.63559385000000002        3.7576959810037038E-002  0.63559385000000002        0.0000000000000000        9.3635922540461370E-016
 chl          31   2.1498453004027887E-010   3.3824199217830517E-010  0.63559385000000002     
 chl2c          32  0.24722667500000001        2.0893126428578448E-002  0.24722667500000001        0.0000000000000000        5.4365808198962345E-016
 chl          32   8.3622443071618395E-011   3.3824199217830517E-010  0.24722667500000001     
 chl2c          33  0.60343137499999999        3.7458922634011876E-002  0.60343137499999999        0.0000000000000000        9.2987519926133009E-016
 chl          33   2.0410583042289393E-010   3.3824199217830517E-010  0.60343137499999999     
 chl2c          34  0.38241020000000003        2.5350269098008315E-002  0.38241020000000003        0.0000000000000000        5.3925614937914656E-016
 chl          34   1.2934718787730412E-010   3.3824199217830517E-010  0.38241020000000003     
 chl2c          35  0.49574644999999995        2.5740370148566064E-002  0.49574644999999995        0.0000000000000000        4.1662013573015045E-006
 chl          35   1.6768226686332252E-010   3.3824199217830517E-010  0.49574644999999995     
 chl2c          36  0.69587337500000002        3.7770393924465726E-002  0.69587337500000002        0.0000000000000000        6.4219376719525396E-006
 chl          36   2.3537359666384084E-010   3.3824199217830517E-010  0.69587337500000002     
 chl2c          37  0.33194060000000003        2.1353674699533250E-002  0.33194060000000003        0.0000000000000000        9.1431235229154005E-007
 chl          37   1.1227624982886193E-010   3.3824199217830517E-010  0.33194060000000003     
 chl2c          38  0.38455722500000000        2.1543295686358745E-002  0.38455722500000000        0.0000000000000000        3.7942081529571065E-006
 chl          38   1.3007340189056073E-010   3.3824199217830517E-010  0.38455722500000000     
 chl2c          39  0.47091117500000002        2.5670077108751441E-002  0.47091117500000002        0.0000000000000000        2.8085472079063419E-006
 chl          39   1.5928193397102651E-010   3.3824199217830517E-010  0.47091117500000002     
 chl2c          40  0.66875547499999999        3.7687445774703773E-002  0.66875547499999999        0.0000000000000000        4.6586189020572610E-006
 chl          40   2.2620118414414875E-010   3.3824199217830517E-010  0.66875547499999999     
 chl2c          41  0.44304987499999998        2.5582381488167241E-002  0.44304987499999998        0.0000000000000000        5.3742563721902819E-016
 chl          41   1.4985807235434906E-010   3.3824199217830517E-010  0.44304987499999998     
 chl2c          42  0.76234377499999995        3.7949995630725070E-002  0.76234377499999995        0.0000000000000000        3.7002591954188272E-006
 chl          42   2.5785667718072960E-010   3.3824199217830517E-010  0.76234377499999995     
 chl2c          43  0.29539925000000000        2.1185090152268007E-002  0.29539925000000000        0.0000000000000000        5.4366016314360402E-016
 chl          43   9.9916430807977211E-011   3.3824199217830517E-010  0.29539925000000000     
 chl2c          44  0.62417262500000004        3.7536352708156646E-002  0.62417262500000004        0.0000000000000000        7.5523770523962675E-006
 chl          44   2.1112139214316221E-010   3.3824199217830517E-010  0.62417262500000004     
 chl2c          45  0.37662252499999999        4.6544927192009838E-002  0.37662252499999999        0.0000000000000000        6.4075643407060221E-020
 chl          45   1.2738955315522352E-010   3.3824199217830517E-010  0.37662252499999999     
 chl2c          46  0.51876034999999998        3.7083195475449568E-002  0.51876034999999998        0.0000000000000000        9.3633230130043893E-016
 chl          46   1.7546653424711485E-010   3.3824199217830517E-010  0.51876034999999998     
 chl2c          47  0.61962282499999999        3.7519784612651236E-002  0.61962282499999999        0.0000000000000000        8.0414684335208932E-006
 chl          47   2.0958245872714935E-010   3.3824199217830517E-010  0.61962282499999999     
 chl2c          48  0.71424949999999998        3.7823212136301673E-002  0.71424949999999998        0.0000000000000000        5.6003287191641568E-006
 chl          48   2.4158917379235837E-010   3.3824199217830517E-010  0.71424949999999998     
 chl2c          49  0.53276120000000005        3.7152990741888416E-002  0.53276120000000005        0.0000000000000000        8.0118121941176369E-006
 chl          49   1.8020220964330450E-010   3.3824199217830517E-010  0.53276120000000005     
 chl2c          50  0.38132569999999999        2.1533072915600981E-002  0.38132569999999999        0.0000000000000000        5.4081548172883147E-016
 chl          50   1.2898036443678673E-010   3.3824199217830517E-010  0.38132569999999999     
 chl2c          51  0.22275920000000002        2.0700971146093840E-002  0.22275920000000002        0.0000000000000000        3.9520876301253974E-006
 chl          51   7.5346515584045517E-011   3.3824199217830517E-010  0.22275920000000002     
 chl2c          52  0.63698869999999996        3.7581825176985564E-002  0.63698869999999996        0.0000000000000000        6.0449916240524379E-006
 chl          52   2.1545632688306877E-010   3.3824199217830517E-010  0.63698869999999996     
 chl2c          53  0.75269794999999995        3.7925801262726190E-002  0.75269794999999995        0.0000000000000000        2.8829713916479868E-006
 chl          53   2.5459405411652630E-010   3.3824199217830517E-010  0.75269794999999995     
 chl2c          54  0.51861124999999997        3.7082433371327092E-002  0.51861124999999997        0.0000000000000000        7.9712528463128572E-006
 chl          54   1.7541610236608104E-010   3.3824199217830517E-010  0.51861124999999997     
 chl2c          55  0.57808280000000001        3.7357235588660491E-002  0.57808280000000001        0.0000000000000000        9.3785076601066897E-016
 chl          55   1.9553187791601274E-010   3.3824199217830517E-010  0.57808280000000001     
 chl2c          56  0.61626080000000005        3.7507394187257688E-002  0.61626080000000005        0.0000000000000000        5.7960054791016094E-006
 chl          56   2.0844528069339609E-010   3.3824199217830517E-010  0.61626080000000005     
 chl2c          57  0.68163462500000005        3.7727617852646313E-002  0.68163462500000005        0.0000000000000000        9.3832806498680291E-016
 chl          57   2.3055745349771199E-010   3.3824199217830517E-010  0.68163462500000005     
 chl2c          58  0.69416802499999997        3.7765358178394853E-002  0.69416802499999997        0.0000000000000000        9.3738707452186901E-016
 chl          58   2.3479677568247954E-010   3.3824199217830517E-010  0.69416802499999997     
 chl2c          59  0.53705127500000005        3.7173699120809672E-002  0.53705127500000005        0.0000000000000000        9.3909862132222778E-016
 chl          59   1.8165329315789882E-010   3.3824199217830517E-010  0.53705127500000005     
 chl2c          60  0.64452155000000000        3.7607757740906807E-002  0.64452155000000000        0.0000000000000000        9.2749835364997745E-016
 chl          60   2.1800425307384912E-010   3.3824199217830517E-010  0.64452155000000000     
 chl2c          61  0.70794139999999994        3.7805373434125003E-002  0.70794139999999994        0.0000000000000000        7.3485754193791245E-006
 chl          61   2.3945550948149840E-010   3.3824199217830517E-010  0.70794139999999994     
 chl2c          62  0.76481592499999995        3.7956103087269030E-002  0.76481592499999995        0.0000000000000000        5.3986157638772313E-006
 chl          62   2.5869286212169323E-010   3.3824199217830517E-010  0.76481592499999995     
 chl2c          63  0.72597904999999996        3.7855601011927406E-002  0.72597904999999996        0.0000000000000000        9.2795665494412045E-016
 chl          63   2.4555660015171338E-010   3.3824199217830517E-010  0.72597904999999996     
 chl2c          64  0.48435739999999999        2.5708982294816416E-002  0.48435739999999999        0.0000000000000000        4.3704526186880404E-006
 chl          64   1.6383001190230423E-010   3.3824199217830517E-010  0.48435739999999999     
 chl2c          65  0.76379975000000000        3.7953597170552002E-002  0.76379975000000000        0.0000000000000000        9.3121429485870950E-016
 chl          65   2.5834914906529142E-010   3.3824199217830517E-010  0.76379975000000000     
 chl2c          66  0.35213202499999996        3.1840477731474713E-002  0.35213202499999996        0.0000000000000000        4.0542348434580353E-010
 chl          66   1.1910583764578074E-010   3.3824199217830517E-010  0.35213202499999996     
 chl2c          67  0.75736760000000003        3.7937587124568600E-002  0.75736760000000003        0.0000000000000000        8.0102025987648092E-006
 chl          67   2.5617352583530176E-010   3.3824199217830517E-010  0.75736760000000003     
 chl2c          68  0.72590779999999999        3.7855407263856986E-002  0.72590779999999999        0.0000000000000000        9.3841762654151488E-016
 chl          68   2.4553250040977070E-010   3.3824199217830517E-010  0.72590779999999999     
 chl2c          69  0.45524217500000003        2.1732330561541505E-002  0.45524217500000003        0.0000000000000000        5.3964195078796286E-016
 chl          69   1.5398202019558463E-010   3.3824199217830517E-010  0.45524217500000003     
 chl2c          70  0.48694062500000002        3.2658010878182209E-002  0.48694062500000002        0.0000000000000000        5.1435867539729297E-009
 chl          70   1.6470376707254903E-010   3.3824199217830517E-010  0.48694062500000002     
 chl2c          71  0.23986107500000001        4.3481058864416305E-002  0.23986107500000001        0.0000000000000000        5.8925511605759581E-020
 chl          71   8.1131087854029870E-011   3.3824199217830517E-010  0.23986107500000001     
 chl2c          72  0.62790522500000001        3.7549776402781669E-002  0.62790522500000001        0.0000000000000000        6.7166831731035229E-006
 chl          72   2.1238391420316695E-010   3.3824199217830517E-010  0.62790522500000001     
 chl2c          73  0.35362212500000001        3.1852614277819484E-002  0.35362212500000001        0.0000000000000000        3.5477642573677224E-010
 chl          73   1.1960985203832566E-010   3.3824199217830517E-010  0.35362212500000001     
 chl2c          74  0.64719590000000005        3.7616827685877569E-002  0.64719590000000005        0.0000000000000000        9.3433171110298633E-016
 chl          74   2.1890883054563119E-010   3.3824199217830517E-010  0.64719590000000005     
 chl2c          75  0.71554212500000003        3.7826830779512356E-002  0.71554212500000003        0.0000000000000000        6.7164124708382741E-006
 chl          75   2.4202639384749784E-010   3.3824199217830517E-010  0.71554212500000003     
 chl2c          76  0.55513977500000000        3.7257729557919804E-002  0.55513977500000000        0.0000000000000000        9.3441853230459223E-016
 chl          76   1.8777158343341610E-010   3.3824199217830517E-010  0.55513977500000000     
 chl2c          77  0.52973029999999999        3.7138172437479272E-002  0.52973029999999999        0.0000000000000000        9.2657778404485645E-016
 chl          77   1.7917703198921125E-010   3.3824199217830517E-010  0.52973029999999999     
 chl2c          78  0.45117492500000000        4.7515248899399322E-002  0.45117492500000000        0.0000000000000000        6.2215448853375933E-019
 chl          78   1.5260630545289742E-010   3.3824199217830517E-010  0.45117492500000000     
 prod   2.3910881657019571E-010   0.0000000000000000        10.000000000000000     
 chl2c           1  0.60826437499999997        3.7477407714772232E-002  0.60826437499999997        0.0000000000000000        9.3244002537763523E-016
 chl           1   4.6291603812276264E-017   7.6104413993136238E-017  0.60826437499999997     
 chl2c           2  0.48302390000000001        3.2640259920490348E-002  0.48302390000000001        0.0000000000000000        1.1291220309758377E-020
 chl           2   3.6760250854179238E-017   7.6104413993136238E-017  0.48302390000000001     
 chl2c           3  0.75128689999999998        3.7922212503796585E-002  0.75128689999999998        0.0000000000000000        7.3792147715311412E-006
 chl           3   5.7176249265219944E-017   7.6104413993136238E-017  0.75128689999999998     
 chl2c           4  0.77318742499999993        3.7976509103863923E-002  0.77318742499999993        0.0000000000000000        9.3244002537763523E-016
 chl           4   5.8842975886486971E-017   7.6104413993136238E-017  0.77318742499999993     
 chl2c           5  0.48489679999999996        2.5710500362372445E-002  0.48489679999999996        0.0000000000000000        5.3956964183503835E-016
 chl           5   3.6902786811146982E-017   7.6104413993136238E-017  0.48489679999999996     
 chl2c           6  0.29222855000000003        3.1261039902252048E-002  0.29222855000000003        0.0000000000000000        1.4149098488360172E-019
 chl           6   2.2239882549813914E-017   7.6104413993136238E-017  0.29222855000000003     
 chl2c           7  0.22770740000000000        4.3064391842467263E-002  0.22770740000000000        0.0000000000000000        1.1017805330196280E-020
 chl           7   1.7329538238900670E-017   7.6104413993136238E-017  0.22770740000000000     
 chl2c           8  0.49578364999999996        4.7969800906495587E-002  0.49578364999999996        0.0000000000000000        1.1707188956680030E-020
 chl           8   3.7731324150628158E-017   7.6104413993136238E-017  0.49578364999999996     
 chl2c           9  0.28700202499999999        2.4803669054600401E-002  0.28700202499999999        0.0000000000000000        5.4184081042678104E-016
 chl           9   2.1842120927468436E-017   7.6104413993136238E-017  0.28700202499999999     
 chl2c          10  0.39094662499999999        2.5387016219684602E-002  0.39094662499999999        0.0000000000000000        5.4184867389951898E-016
 chl          10   2.9752763798219386E-017   7.6104413993136238E-017  0.39094662499999999     
 chl2c          11  0.49737575000000001        2.1820572217820047E-002  0.49737575000000001        0.0000000000000000        4.5421932122279881E-006
 chl          11   3.7852489988146634E-017   7.6104413993136238E-017  0.49737575000000001     
 chl2c          12  0.30768942500000002        4.5290941298723353E-002  0.30768942500000002        0.0000000000000000        3.2144699096270650E-011
 chl          12   2.3416523381510043E-017   7.6104413993136238E-017  0.30768942500000002     
 chl2c          13  0.75666275000000005        3.7935816987997487E-002  0.75666275000000005        0.0000000000000000        6.1927255551898113E-006
 chl          13   5.7585375179184945E-017   7.6104413993136238E-017  0.75666275000000005     
 chl2c          14  0.39804095000000000        4.6856526101924839E-002  0.39804095000000000        0.0000000000000000        3.7463730268996512E-010
 chl          14   3.0292673245021243E-017   7.6104413993136238E-017  0.39804095000000000     
 chl2c          15  0.25607262500000000        2.0954299823745293E-002  0.25607262500000000        0.0000000000000000        5.4323458438436399E-016
 chl          15   1.9488257065309128E-017   7.6104413993136238E-017  0.25607262500000000     
 chl2c          16  0.71433214999999994        3.7823443882273475E-002  0.71433214999999994        0.0000000000000000        3.9126585160671990E-006
 chl          16   5.4363829672207091E-017   7.6104413993136238E-017  0.71433214999999994     
 chl2c          17  0.62580860000000005        3.7542254757581245E-002  0.62580860000000005        0.0000000000000000        7.8712422153048705E-006
 chl          17   4.7626796774865005E-017   7.6104413993136238E-017  0.62580860000000005     
 chl2c          18  0.47925950000000000        2.5694475239060960E-002  0.47925950000000000        0.0000000000000000        2.4706925397411264E-006
 chl          18   3.6473763398143475E-017   7.6104413993136238E-017  0.47925950000000000     
 chl2c          19  0.63367130000000005        3.7570220750293731E-002  0.63367130000000005        0.0000000000000000        9.2840804349270472E-016
 chl          19   4.8225182950768835E-017   7.6104413993136238E-017  0.63367130000000005     
 chl2c          20  0.50678202500000002        3.7020645196759419E-002  0.50678202500000002        0.0000000000000000        7.0600326313675255E-006
 chl          20   3.8568349034879920E-017   7.6104413993136238E-017  0.50678202500000002     
 chl2c          21  0.71973185000000006        3.7838475073783531E-002  0.71973185000000006        0.0000000000000000        9.3329272539305717E-016
 chl          21   5.4774770676445833E-017   7.6104413993136238E-017  0.71973185000000006     
 chl2c          22  0.64616892500000001        3.7613353106285476E-002  0.64616892500000001        0.0000000000000000        9.3244002537763523E-016
 chl          22   4.9176307377699798E-017   7.6104413993136238E-017  0.64616892500000001     
 chl2c          23  0.41564179999999995        3.2286562315070731E-002  0.41564179999999995        0.0000000000000000        1.6118339525323855E-020
 chl          23   3.1632175620052331E-017   7.6104413993136238E-017  0.41564179999999995     
 chl2c          24  0.57597492500000003        3.7348402796863071E-002  0.57597492500000003        0.0000000000000000        6.5729482920252022E-006
 chl          24   4.3834234141865598E-017   7.6104413993136238E-017  0.57597492500000003     
 chl2c          25  0.31406487500000002        4.5426679235459781E-002  0.31406487500000002        0.0000000000000000        1.2276332784013951E-020
 chl          25   2.3901723267702585E-017   7.6104413993136238E-017  0.31406487500000002     
 chl2c          26  0.49427735000000000        4.7955660680174553E-002  0.49427735000000000        0.0000000000000000        9.3925473854699952E-011
 chl          26   3.7616688071830301E-017   7.6104413993136238E-017  0.49427735000000000     
 chl2c          27  0.30964730000000001        4.5333133499525620E-002  0.30964730000000001        0.0000000000000000        9.0181957927693618E-010
 chl          27   2.3565526311056855E-017   7.6104413993136238E-017  0.30964730000000001     
 chl2c          28  0.28776342500000002        3.1209236063453518E-002  0.28776342500000002        0.0000000000000000        8.8552022517650383E-010
 chl          28   2.1900066828282812E-017   7.6104413993136238E-017  0.28776342500000002     
 chl2c          29  0.68676297499999994        3.7743217595736761E-002  0.68676297499999994        0.0000000000000000        9.3416936067240992E-016
 chl          29   5.2265693764557869E-017   7.6104413993136238E-017  0.68676297499999994     
 chl2c          30  0.38930277499999999        2.5380056985171612E-002  0.38930277499999999        0.0000000000000000        4.5882860317522885E-006
 chl          30   2.9627659557276767E-017   7.6104413993136238E-017  0.38930277499999999     
 chl2c          31  0.63559385000000002        3.7576959810037038E-002  0.63559385000000002        0.0000000000000000        9.3635922540461370E-016
 chl          31   4.8371497491891335E-017   7.6104413993136238E-017  0.63559385000000002     
 chl2c          32  0.24722667500000001        2.0893126428578448E-002  0.24722667500000001        0.0000000000000000        5.4365808198962345E-016
 chl          32   1.8815041224346545E-017   7.6104413993136238E-017  0.24722667500000001     
 chl2c          33  0.60343137499999999        3.7458922634011876E-002  0.60343137499999999        0.0000000000000000        9.2987519926133009E-016
 chl          33   4.5923791179447440E-017   7.6104413993136238E-017  0.60343137499999999     
 chl2c          34  0.38241020000000003        2.5350269098008315E-002  0.38241020000000003        0.0000000000000000        5.3925614937914656E-016
 chl          34   2.9103104175998031E-017   7.6104413993136238E-017  0.38241020000000003     
 chl2c          35  0.49574644999999995        2.5740370148566064E-002  0.49574644999999995        0.0000000000000000        4.2585763125056065E-006
 chl          35   3.7728493066427613E-017   7.6104413993136238E-017  0.49574644999999995     
 chl2c          36  0.69587337500000002        3.7770393924465726E-002  0.69587337500000002        0.0000000000000000        6.6561198579536905E-006
 chl          36   5.2959035417800941E-017   7.6104413993136238E-017  0.69587337500000002     
 chl2c          37  0.33194060000000003        2.1353674699533250E-002  0.33194060000000003        0.0000000000000000        1.4073950183825694E-006
 chl          37   2.5262144843530042E-017   7.6104413993136238E-017  0.33194060000000003     
 chl2c          38  0.38455722500000000        2.1543295686358745E-002  0.38455722500000000        0.0000000000000000        3.9852074664486871E-006
 chl          38   2.9266502255451640E-017   7.6104413993136238E-017  0.38455722500000000     
 chl2c          39  0.47091117500000002        2.5670077108751441E-002  0.47091117500000002        0.0000000000000000        3.1703166530418330E-006
 chl          39   3.5838419016194230E-017   7.6104413993136238E-017  0.47091117500000002     
 chl2c          40  0.66875547499999999        3.7687445774703773E-002  0.66875547499999999        0.0000000000000000        3.9334894571636289E-006
 chl          40   5.0895243529576472E-017   7.6104413993136238E-017  0.66875547499999999     
 chl2c          41  0.44304987499999998        2.5582381488167241E-002  0.44304987499999998        0.0000000000000000        5.3742563721902819E-016
 chl          41   3.3718051106607258E-017   7.6104413993136238E-017  0.44304987499999998     
 chl2c          42  0.76234377499999995        3.7949995630725070E-002  0.76234377499999995        0.0000000000000000        2.9652343784994377E-006
 chl          42   5.8017726257690303E-017   7.6104413993136238E-017  0.76234377499999995     
 chl2c          43  0.29539925000000000        2.1185090152268007E-002  0.29539925000000000        0.0000000000000000        5.4366016314360402E-016
 chl          43   2.2481186815261951E-017   7.6104413993136238E-017  0.29539925000000000     
 chl2c          44  0.62417262500000004        3.7536352708156646E-002  0.62417262500000004        0.0000000000000000        7.2537174926525966E-006
 chl          44   4.7502291856182582E-017   7.6104413993136238E-017  0.62417262500000004     
 chl2c          45  0.37662252499999999        4.6544927192009838E-002  0.37662252499999999        0.0000000000000000        1.4840381790485402E-020
 chl          45   2.8662636561740302E-017   7.6104413993136238E-017  0.37662252499999999     
 chl2c          46  0.51876034999999998        3.7083195475449568E-002  0.51876034999999998        0.0000000000000000        9.3633230130043893E-016
 chl          46   3.9479952439624252E-017   7.6104413993136238E-017  0.51876034999999998     
 chl2c          47  0.61962282499999999        3.7519784612651236E-002  0.61962282499999999        0.0000000000000000        7.9082052604431109E-006
 chl          47   4.7156031993396606E-017   7.6104413993136238E-017  0.61962282499999999     
 chl2c          48  0.71424949999999998        3.7823212136301673E-002  0.71424949999999998        0.0000000000000000        4.9764716943991174E-006
 chl          48   5.4357539642390557E-017   7.6104413993136238E-017  0.71424949999999998     
 chl2c          49  0.53276120000000005        3.7152990741888416E-002  0.53276120000000005        0.0000000000000000        7.8790193536172808E-006
 chl          49   4.0545478924280058E-017   7.6104413993136238E-017  0.53276120000000005     
 chl2c          50  0.38132569999999999        2.1533072915600981E-002  0.38132569999999999        0.0000000000000000        5.4081548172883147E-016
 chl          50   2.9020568939022472E-017   7.6104413993136238E-017  0.38132569999999999     
 chl2c          51  0.22275920000000002        2.0700971146093840E-002  0.22275920000000002        0.0000000000000000        4.1079691307863006E-006
 chl          51   1.6952958377579836E-017   7.6104413993136238E-017  0.22275920000000002     
 chl2c          52  0.63698869999999996        3.7581825176985564E-002  0.63698869999999996        0.0000000000000000        5.4305383666829876E-006
 chl          52   4.8477651733749659E-017   7.6104413993136238E-017  0.63698869999999996     
 chl2c          53  0.75269794999999995        3.7925801262726190E-002  0.75269794999999995        0.0000000000000000        2.1323684888673195E-006
 chl          53   5.7283636398584961E-017   7.6104413993136238E-017  0.75269794999999995     
 chl2c          54  0.51861124999999997        3.7082433371327092E-002  0.51861124999999997        0.0000000000000000        7.8390847754098220E-006
 chl          54   3.9468605271497872E-017   7.6104413993136238E-017  0.51861124999999997     
 chl2c          55  0.57808280000000001        3.7357235588660491E-002  0.57808280000000001        0.0000000000000000        9.3785076601066897E-016
 chl          55   4.3994652733511377E-017   7.6104413993136238E-017  0.57808280000000001     
 chl2c          56  0.61626080000000005        3.7507394187257688E-002  0.61626080000000005        0.0000000000000000        6.0947999569977819E-006
 chl          56   4.6900167050941339E-017   7.6104413993136238E-017  0.61626080000000005     
 chl2c          57  0.68163462500000005        3.7727617852646313E-002  0.68163462500000005        0.0000000000000000        9.3832806498680291E-016
 chl          57   5.1875403693056174E-017   7.6104413993136238E-017  0.68163462500000005     
 chl2c          58  0.69416802499999997        3.7765358178394853E-002  0.69416802499999997        0.0000000000000000        9.3244002537763523E-016
 chl          58   5.2829250755397746E-017   7.6104413993136238E-017  0.69416802499999997     
 chl2c          59  0.53705127500000005        3.7173699120809672E-002  0.53705127500000005        0.0000000000000000        9.3909862132222778E-016
 chl          59   4.0871972568141665E-017   7.6104413993136238E-017  0.53705127500000005     
 chl2c          60  0.64452155000000000        3.7607757740906807E-002  0.64452155000000000        0.0000000000000000        9.2749835364997745E-016
 chl          60   4.9050934868697857E-017   7.6104413993136238E-017  0.64452155000000000     
 chl2c          61  0.70794139999999994        3.7805373434125003E-002  0.70794139999999994        0.0000000000000000        7.4132971312956819E-006
 chl          61   5.3877465388480457E-017   7.6104413993136238E-017  0.70794139999999994     
 chl2c          62  0.76481592499999995        3.7956103087269030E-002  0.76481592499999995        0.0000000000000000        4.7656129546819097E-006
 chl          62   5.8205867784743429E-017   7.6104413993136238E-017  0.76481592499999995     
 chl2c          63  0.72597904999999996        3.7855601011927406E-002  0.72597904999999996        0.0000000000000000        9.2795665494412045E-016
 chl          63   5.5250210171543748E-017   7.6104413993136238E-017  0.72597904999999996     
 chl2c          64  0.48435739999999999        2.5708982294816416E-002  0.48435739999999999        0.0000000000000000        4.3942819436045213E-006
 chl          64   3.6861736090239086E-017   7.6104413993136238E-017  0.48435739999999999     
 chl2c          65  0.76379975000000000        3.7953597170552002E-002  0.76379975000000000        0.0000000000000000        9.3121429485870950E-016
 chl          65   5.8128532381853954E-017   7.6104413993136238E-017  0.76379975000000000     
 chl2c          66  0.35213202499999996        3.1840477731474713E-002  0.35213202499999996        0.0000000000000000        9.6051997007176777E-011
 chl          66   2.6798801410841398E-017   7.6104413993136238E-017  0.35213202499999996     
 chl2c          67  0.75736760000000003        3.7937587124568600E-002  0.75736760000000003        0.0000000000000000        7.8774091996265530E-006
 chl          67   5.7639017375388009E-017   7.6104413993136238E-017  0.75736760000000003     
 chl2c          68  0.72590779999999999        3.7855407263856986E-002  0.72590779999999999        0.0000000000000000        9.3244002537763523E-016
 chl          68   5.5244787732046738E-017   7.6104413993136238E-017  0.72590779999999999     
 chl2c          69  0.45524217500000003        2.1732330561541505E-002  0.45524217500000003        0.0000000000000000        5.3964195078796286E-016
 chl          69   3.4645938953335780E-017   7.6104413993136238E-017  0.45524217500000003     
 chl2c          70  0.48694062500000002        3.2658010878182209E-002  0.48694062500000002        0.0000000000000000        1.0953867827550615E-009
 chl          70   3.7058330915076509E-017   7.6104413993136238E-017  0.48694062500000002     
 chl2c          71  0.23986107500000001        4.3481058864416305E-002  0.23986107500000001        0.0000000000000000        1.3647476066618867E-020
 chl          71   1.8254486552638700E-017   7.6104413993136238E-017  0.23986107500000001     
 chl2c          72  0.62790522500000001        3.7549776402781669E-002  0.62790522500000001        0.0000000000000000        6.1896773387090241E-006
 chl          72   4.7786359191853360E-017   7.6104413993136238E-017  0.62790522500000001     
 chl2c          73  0.35362212500000001        3.1852614277819484E-002  0.35362212500000001        0.0000000000000000        9.2027475462054354E-011
 chl          73   2.6912204598132573E-017   7.6104413993136238E-017  0.35362212500000001     
 chl2c          74  0.64719590000000005        3.7616827685877569E-002  0.64719590000000005        0.0000000000000000        9.3433171110298633E-016
 chl          74   4.9254464708260406E-017   7.6104413993136238E-017  0.64719590000000005     
 chl2c          75  0.71554212500000003        3.7826830779512356E-002  0.71554212500000003        0.0000000000000000        6.9012503312047734E-006
 chl          75   5.4455914110528444E-017   7.6104413993136238E-017  0.71554212500000003     
 chl2c          76  0.55513977500000000        3.7257729557919804E-002  0.55513977500000000        0.0000000000000000        9.3244002537763523E-016
 chl          76   4.2248587260656505E-017   7.6104413993136238E-017  0.55513977500000000     
 chl2c          77  0.52973029999999999        3.7138172437479272E-002  0.52973029999999999        0.0000000000000000        9.2657778404485645E-016
 chl          77   4.0314814055908258E-017   7.6104413993136238E-017  0.52973029999999999     
 chl2c          78  0.45117492500000000        4.7515248899399322E-002  0.45117492500000000        0.0000000000000000        1.3567494548754993E-019
 chl          78   3.4336403275522193E-017   7.6104413993136238E-017  0.45117492500000000     
 prod   5.5374381542963772E-011   0.0000000000000000        10.000000000000000     
 chl2c           1  0.60826437499999997        3.7477407714772232E-002  0.60826437499999997        0.0000000000000000        9.3488744118868713E-016
 chl           1   1.0415606431129760E-023   1.7123485870974708E-023  0.60826437499999997     
 chl2c           2  0.48302390000000001        3.2640259920490348E-002  0.48302390000000001        0.0000000000000000        4.1616453394616388E-021
 chl           2   8.2710529269930997E-024   1.7123485870974708E-023  0.48302390000000001     
 chl2c           3  0.75128689999999998        3.7922212503796585E-002  0.75128689999999998        0.0000000000000000        7.4226763881187739E-006
 chl           3   1.2864650617198387E-023   1.7123485870974708E-023  0.75128689999999998     
 chl2c           4  0.77318742499999993        3.7976509103863923E-002  0.77318742499999993        0.0000000000000000        9.3488744118868713E-016
 chl           4   1.3239663947602816E-023   1.7123485870974708E-023  0.77318742499999993     
 chl2c           5  0.48489679999999996        2.5710500362372445E-002  0.48489679999999996        0.0000000000000000        5.3956964183503835E-016
 chl           5   8.3031235036808481E-024   1.7123485870974708E-023  0.48489679999999996     
 chl2c           6  0.29222855000000003        3.1261039902252048E-002  0.29222855000000003        0.0000000000000000        5.4940201631952661E-020
 chl           6   5.0039714470204268E-024   1.7123485870974708E-023  0.29222855000000003     
 chl2c           7  0.22770740000000000        4.3064391842467263E-002  0.22770740000000000        0.0000000000000000        4.0608705332600629E-021
 chl           7   3.8991444466163864E-024   1.7123485870974708E-023  0.22770740000000000     
 chl2c           8  0.49578364999999996        4.7969800906495587E-002  0.49578364999999996        0.0000000000000000        4.3149624435757505E-021
 chl           8   8.4895443258352685E-024   1.7123485870974708E-023  0.49578364999999996     
 chl2c           9  0.28700202499999999        2.4803669054600401E-002  0.28700202499999999        0.0000000000000000        5.4184081042678104E-016
 chl           9   4.9144751200286296E-024   1.7123485870974708E-023  0.28700202499999999     
 chl2c          10  0.39094662499999999        2.5387016219684602E-002  0.39094662499999999        0.0000000000000000        5.4184867389951898E-016
 chl          10   6.6943690094927475E-024   1.7123485870974708E-023  0.39094662499999999     
 chl2c          11  0.49737575000000001        2.1820572217820047E-002  0.49737575000000001        0.0000000000000000        4.4806834099493278E-006
 chl          11   8.5168066276904478E-024   1.7123485870974708E-023  0.49737575000000001     
 chl2c          12  0.30768942500000002        4.5290941298723353E-002  0.30768942500000002        0.0000000000000000        6.9775670995317674E-012
 chl          12   5.2687155216358324E-024   1.7123485870974708E-023  0.30768942500000002     
 chl2c          13  0.75666275000000005        3.7935816987997487E-002  0.75666275000000005        0.0000000000000000        5.6025681324392556E-006
 chl          13   1.2956703908717868E-023   1.7123485870974708E-023  0.75666275000000005     
 chl2c          14  0.39804095000000000        4.6856526101924839E-002  0.39804095000000000        0.0000000000000000        1.8374402615795829E-010
 chl          14   6.8158485833943504E-024   1.7123485870974708E-023  0.39804095000000000     
 chl2c          15  0.25607262500000000        2.0954299823745293E-002  0.25607262500000000        0.0000000000000000        5.4323458438436399E-016
 chl          15   4.3848559761309045E-024   1.7123485870974708E-023  0.25607262500000000     
 chl2c          16  0.71433214999999994        3.7823443882273475E-002  0.71433214999999994        0.0000000000000000        3.1287620929994287E-006
 chl          16   1.2231856477707985E-023   1.7123485870974708E-023  0.71433214999999994     
 chl2c          17  0.62580860000000005        3.7542254757581245E-002  0.62580860000000005        0.0000000000000000        7.7471902682260697E-006
 chl          17   1.0716024720034463E-023   1.7123485870974708E-023  0.62580860000000005     
 chl2c          18  0.47925950000000000        2.5694475239060960E-002  0.47925950000000000        0.0000000000000000        2.9037311117716997E-006
 chl          18   8.2065932767804036E-024   1.7123485870974708E-023  0.47925950000000000     
 chl2c          19  0.63367130000000005        3.7570220750293731E-002  0.63367130000000005        0.0000000000000000        9.2840804349270472E-016
 chl          19   1.0850661552392175E-023   1.7123485870974708E-023  0.63367130000000005     
 chl2c          20  0.50678202500000002        3.7020645196759419E-002  0.50678202500000002        0.0000000000000000        6.6221338440176234E-006
 chl          20   8.6778748447514520E-024   1.7123485870974708E-023  0.50678202500000002     
 chl2c          21  0.71973185000000006        3.7838475073783531E-002  0.71973185000000006        0.0000000000000000        9.3329272539305717E-016
 chl          21   1.2324318164365489E-023   1.7123485870974708E-023  0.71973185000000006     
 chl2c          22  0.64616892500000001        3.7613353106285476E-002  0.64616892500000001        0.0000000000000000        9.3488744118868713E-016
 chl          22   1.1064664457500416E-023   1.7123485870974708E-023  0.64616892500000001     
 chl2c          23  0.41564179999999995        3.2286562315070731E-002  0.41564179999999995        0.0000000000000000        5.9408267394180852E-021
 chl          23   7.1172364896864937E-024   1.7123485870974708E-023  0.41564179999999995     
 chl2c          24  0.57597492500000003        3.7348402796863071E-002  0.57597492500000003        0.0000000000000000        6.7715637402830596E-006
 chl          24   9.8626984902732180E-024   1.7123485870974708E-023  0.57597492500000003     
 chl2c          25  0.31406487500000002        4.5426679235459781E-002  0.31406487500000002        0.0000000000000000        4.5247368642215237E-021
 chl          25   5.3778854496319380E-024   1.7123485870974708E-023  0.31406487500000002     
 chl2c          26  0.49427735000000000        4.7955660680174553E-002  0.49427735000000000        0.0000000000000000        3.3874168792479646E-011
 chl          26   8.4637512190678210E-024   1.7123485870974708E-023  0.49427735000000000     
 chl2c          27  0.30964730000000001        4.5333133499525620E-002  0.30964730000000001        0.0000000000000000        3.4369925737619853E-010
 chl          27   5.3022411665354668E-024   1.7123485870974708E-023  0.30964730000000001     
 chl2c          28  0.28776342500000002        3.1209236063453518E-002  0.28776342500000002        0.0000000000000000        3.3308367588116819E-010
 chl          28   4.9275129421707906E-024   1.7123485870974708E-023  0.28776342500000002     
 chl2c          29  0.68676297499999994        3.7743217595736761E-002  0.68676297499999994        0.0000000000000000        9.3416936067240992E-016
 chl          29   1.1759776099121056E-023   1.7123485870974708E-023  0.68676297499999994     
 chl2c          30  0.38930277499999999        2.5380056985171612E-002  0.38930277499999999        0.0000000000000000        4.5039832120582183E-006
 chl          30   6.6662205672437448E-024   1.7123485870974708E-023  0.38930277499999999     
 chl2c          31  0.63559385000000002        3.7576959810037038E-002  0.63559385000000002        0.0000000000000000        9.3635922540461370E-016
 chl          31   1.0883582310153418E-023   1.7123485870974708E-023  0.63559385000000002     
 chl2c          32  0.24722667500000001        2.0893126428578448E-002  0.24722667500000001        0.0000000000000000        5.4365808198962345E-016
 chl          32   4.2333824762905558E-024   1.7123485870974708E-023  0.24722667500000001     
 chl2c          33  0.60343137499999999        3.7458922634011876E-002  0.60343137499999999        0.0000000000000000        9.2987519926133009E-016
 chl          33   1.0332848623915341E-023   1.7123485870974708E-023  0.60343137499999999     
 chl2c          34  0.38241020000000003        2.5350269098008315E-002  0.38241020000000003        0.0000000000000000        5.3925614937914656E-016
 chl          34   6.5481956566166126E-024   1.7123485870974708E-023  0.38241020000000003     
 chl2c          35  0.49574644999999995        2.5740370148566064E-002  0.49574644999999995        0.0000000000000000        4.3044679994677186E-006
 chl          35   8.4889073321608685E-024   1.7123485870974708E-023  0.49574644999999995     
 chl2c          36  0.69587337500000002        3.7770393924465726E-002  0.69587337500000002        0.0000000000000000        6.8419620186623865E-006
 chl          36   1.1915777904799984E-023   1.7123485870974708E-023  0.69587337500000002     
 chl2c          37  0.33194060000000003        2.1353674699533250E-002  0.33194060000000003        0.0000000000000000        1.9317717953291059E-006
 chl          37   5.6839801741028678E-024   1.7123485870974708E-023  0.33194060000000003     
 chl2c          38  0.38455722500000000        2.1543295686358745E-002  0.38455722500000000        0.0000000000000000        4.1233775266715796E-006
 chl          38   6.5849602088687417E-024   1.7123485870974708E-023  0.38455722500000000     
 chl2c          39  0.47091117500000002        2.5670077108751441E-002  0.47091117500000002        0.0000000000000000        3.4904081883758706E-006
 chl          39   8.0636408515965987E-024   1.7123485870974708E-023  0.47091117500000002     
 chl2c          40  0.66875547499999999        3.7687445774703773E-002  0.66875547499999999        0.0000000000000000        3.1504344581873830E-006
 chl          40   1.1451424927299479E-023   1.7123485870974708E-023  0.66875547499999999     
 chl2c          41  0.44304987499999998        2.5582381488167241E-002  0.44304987499999998        0.0000000000000000        5.3742563721902819E-016
 chl          41   7.5865582746996099E-024   1.7123485870974708E-023  0.44304987499999998     
 chl2c          42  0.76234377499999995        3.7949995630725070E-002  0.76234377499999995        0.0000000000000000        2.1542165500441679E-006
 chl          42   1.3053982860038021E-023   1.7123485870974708E-023  0.76234377499999995     
 chl2c          43  0.29539925000000000        2.1185090152268007E-002  0.29539925000000000        0.0000000000000000        5.4366016314360402E-016
 chl          43   5.0582648836715258E-024   1.7123485870974708E-023  0.29539925000000000     
 chl2c          44  0.62417262500000004        3.7536352708156646E-002  0.62417262500000004        0.0000000000000000        6.8777335703592214E-006
 chl          44   1.0688011125236695E-023   1.7123485870974708E-023  0.62417262500000004     
 chl2c          45  0.37662252499999999        4.6544927192009838E-002  0.37662252499999999        0.0000000000000000        5.4697946857882416E-021
 chl          45   6.4490904855283186E-024   1.7123485870974708E-023  0.37662252499999999     
 chl2c          46  0.51876034999999998        3.7083195475449568E-002  0.51876034999999998        0.0000000000000000        9.3633230130043893E-016
 chl          46   8.8829855236468938E-024   1.7123485870974708E-023  0.51876034999999998     
 chl2c          47  0.61962282499999999        3.7519784612651236E-002  0.61962282499999999        0.0000000000000000        7.7626539322368512E-006
 chl          47   1.0610102689220933E-023   1.7123485870974708E-023  0.61962282499999999     
 chl2c          48  0.71424949999999998        3.7823212136301673E-002  0.71424949999999998        0.0000000000000000        4.2438366526824166E-006
 chl          48   1.2230441221600749E-023   1.7123485870974708E-023  0.71424949999999998     
 chl2c          49  0.53276120000000005        3.7152990741888416E-002  0.53276120000000005        0.0000000000000000        7.7337196310785419E-006
 chl          49   9.1227288808035312E-024   1.7123485870974708E-023  0.53276120000000005     
 chl2c          50  0.38132569999999999        2.1533072915600981E-002  0.38132569999999999        0.0000000000000000        5.4081548172883147E-016
 chl          50   6.5296252361895399E-024   1.7123485870974708E-023  0.38132569999999999     
 chl2c          51  0.22275920000000002        2.0700971146093840E-002  0.22275920000000002        0.0000000000000000        4.2122301723999078E-006
 chl          51   3.8144140138296291E-024   1.7123485870974708E-023  0.22275920000000002     
 chl2c          52  0.63698869999999996        3.7581825176985564E-002  0.63698869999999996        0.0000000000000000        4.7566871281040805E-006
 chl          52   1.0907467004420547E-023   1.7123485870974708E-023  0.63698869999999996     
 chl2c          53  0.75269794999999995        3.7925801262726190E-002  0.75269794999999995        0.0000000000000000        1.3397570030038208E-006
 chl          53   1.2888812711936626E-023   1.7123485870974708E-023  0.75269794999999995     
 chl2c          54  0.51861124999999997        3.7082433371327092E-002  0.51861124999999997        0.0000000000000000        7.6941377210011694E-006
 chl          54   8.8804324119035314E-024   1.7123485870974708E-023  0.51861124999999997     
 chl2c          55  0.57808280000000001        3.7357235588660491E-002  0.57808280000000001        0.0000000000000000        9.3785076601066897E-016
 chl          55   9.8987926580534975E-024   1.7123485870974708E-023  0.57808280000000001     
 chl2c          56  0.61626080000000005        3.7507394187257688E-002  0.61626080000000005        0.0000000000000000        6.4037982648832987E-006
 chl          56   1.0552533101635570E-023   1.7123485870974708E-023  0.61626080000000005     
 chl2c          57  0.68163462500000005        3.7727617852646313E-002  0.68163462500000005        0.0000000000000000        9.3832806498680291E-016
 chl          57   1.1671960870354643E-023   1.7123485870974708E-023  0.68163462500000005     
 chl2c          58  0.69416802499999997        3.7765358178394853E-002  0.69416802499999997        0.0000000000000000        9.3488744118868713E-016
 chl          58   1.1886576368169918E-023   1.7123485870974708E-023  0.69416802499999997     
 chl2c          59  0.53705127500000005        3.7173699120809672E-002  0.53705127500000005        0.0000000000000000        9.3909862132222778E-016
 chl          59   9.1961899194514534E-024   1.7123485870974708E-023  0.53705127500000005     
 chl2c          60  0.64452155000000000        3.7607757740906807E-002  0.64452155000000000        0.0000000000000000        9.2749835364997745E-016
 chl          60   1.1036455654963719E-023   1.7123485870974708E-023  0.64452155000000000     
 chl2c          61  0.70794139999999994        3.7805373434125003E-002  0.70794139999999994        0.0000000000000000        7.4329418597563987E-006
 chl          61   1.2122424560378052E-023   1.7123485870974708E-023  0.70794139999999994     
 chl2c          62  0.76481592499999995        3.7956103087269030E-002  0.76481592499999995        0.0000000000000000        4.0260995698484787E-006
 chl          62   1.3096314685633951E-023   1.7123485870974708E-023  0.76481592499999995     
 chl2c          63  0.72597904999999996        3.7855601011927406E-002  0.72597904999999996        0.0000000000000000        9.2795665494412045E-016
 chl          63   1.2431292005298641E-023   1.7123485870974708E-023  0.72597904999999996     
 chl2c          64  0.48435739999999999        2.5708982294816416E-002  0.48435739999999999        0.0000000000000000        4.3810892626580782E-006
 chl          64   8.2938870954020443E-024   1.7123485870974708E-023  0.48435739999999999     
 chl2c          65  0.76379975000000000        3.7953597170552002E-002  0.76379975000000000        0.0000000000000000        9.3121429485870950E-016
 chl          65   1.3078914227379014E-023   1.7123485870974708E-023  0.76379975000000000     
 chl2c          66  0.35213202499999996        3.1840477731474713E-002  0.35213202499999996        0.0000000000000000        3.5806703795724000E-011
 chl          66   6.0297277548052116E-024   1.7123485870974708E-023  0.35213202499999996     
 chl2c          67  0.75736760000000003        3.7937587124568600E-002  0.75736760000000003        0.0000000000000000        7.7318914136754145E-006
 chl          67   1.2968773397734024E-023   1.7123485870974708E-023  0.75736760000000003     
 chl2c          68  0.72590779999999999        3.7855407263856986E-002  0.72590779999999999        0.0000000000000000        9.3488744118868713E-016
 chl          68   1.2430071956930334E-023   1.7123485870974708E-023  0.72590779999999999     
 chl2c          69  0.45524217500000003        2.1732330561541505E-002  0.45524217500000003        0.0000000000000000        5.3964195078796286E-016
 chl          69   7.7953329514842963E-024   1.7123485870974708E-023  0.45524217500000003     
 chl2c          70  0.48694062500000002        3.2658010878182209E-002  0.48694062500000002        0.0000000000000000        4.1181689091441568E-010
 chl          70   8.3381209121910941E-024   1.7123485870974708E-023  0.48694062500000002     
 chl2c          71  0.23986107500000001        4.3481058864416305E-002  0.23986107500000001        0.0000000000000000        5.0301125062103276E-021
 chl          71   4.1072577287593045E-024   1.7123485870974708E-023  0.23986107500000001     
 chl2c          72  0.62790522500000001        3.7549776402781669E-002  0.62790522500000001        0.0000000000000000        5.6134287944988325E-006
 chl          72   1.0751926248598695E-023   1.7123485870974708E-023  0.62790522500000001     
 chl2c          73  0.35362212500000001        3.1852614277819484E-002  0.35362212500000001        0.0000000000000000        3.7095302638875456E-011
 chl          73   6.0552434611015522E-024   1.7123485870974708E-023  0.35362212500000001     
 chl2c          74  0.64719590000000005        3.7616827685877569E-002  0.64719590000000005        0.0000000000000000        9.3433171110298633E-016
 chl          74   1.1082249849402760E-023   1.7123485870974708E-023  0.64719590000000005     
 chl2c          75  0.71554212500000003        3.7826830779512356E-002  0.71554212500000003        0.0000000000000000        7.0372407136240201E-006
 chl          75   1.2252575467524719E-023   1.7123485870974708E-023  0.71554212500000003     
 chl2c          76  0.55513977500000000        3.7257729557919804E-002  0.55513977500000000        0.0000000000000000        9.3441853230459223E-016
 chl          76   9.5059280936285784E-024   1.7123485870974708E-023  0.55513977500000000     
 chl2c          77  0.52973029999999999        3.7138172437479272E-002  0.52973029999999999        0.0000000000000000        9.2657778404485645E-016
 chl          77   9.0708293074771935E-024   1.7123485870974708E-023  0.52973029999999999     
 chl2c          78  0.45117492500000000        4.7515248899399322E-002  0.45117492500000000        0.0000000000000000        5.2681593813440618E-020
 chl          78   7.7256874535755734E-024   1.7123485870974708E-023  0.45117492500000000     
 prod   2.0409269279136827E-011   0.0000000000000000        10.000000000000000     
 chl2c           1  0.60826437499999997        3.7477407714772232E-002  0.60826437499999997        0.0000000000000000        9.3573127378285871E-016
 chl           1   1.6664965223658535E-030   2.7397569064699108E-030  0.60826437499999997     
 chl2c           2  0.48302390000000001        3.2640259920490348E-002  0.48302390000000001        0.0000000000000000        1.7840066535810532E-021
 chl           2   1.3233680660150316E-030   2.7397569064699108E-030  0.48302390000000001     
 chl2c           3  0.75128689999999998        3.7922212503796585E-002  0.75128689999999998        0.0000000000000000        7.4349831358155651E-006
 chl           3   2.0583434730153693E-030   2.7397569064699108E-030  0.75128689999999998     
 chl2c           4  0.77318742499999993        3.7976509103863923E-002  0.77318742499999993        0.0000000000000000        9.3870557798159626E-016
 chl           4   2.1183455876394358E-030   2.7397569064699108E-030  0.77318742499999993     
 chl2c           5  0.48489679999999996        2.5710500362372445E-002  0.48489679999999996        0.0000000000000000        5.3956964183503835E-016
 chl           5   1.3284993567251589E-030   2.7397569064699108E-030  0.48489679999999996     
 chl2c           6  0.29222855000000003        3.1261039902252048E-002  0.29222855000000003        0.0000000000000000        2.6144744899089582E-020
 chl           6   8.0063518813018769E-031   2.7397569064699108E-030  0.29222855000000003     
 chl2c           7  0.22770740000000000        4.3064391842467263E-002  0.22770740000000000        0.0000000000000000        1.7408065087060571E-021
 chl           7   6.2386292180430659E-031   2.7397569064699108E-030  0.22770740000000000     
 chl2c           8  0.49578364999999996        4.7969800906495587E-002  0.49578364999999996        0.0000000000000000        1.8497306485332014E-021
 chl           8   1.3583266792023608E-030   2.7397569064699108E-030  0.49578364999999996     
 chl2c           9  0.28700202499999999        2.4803669054600401E-002  0.28700202499999999        0.0000000000000000        5.4184081042678104E-016
 chl           9   7.8631578016460000E-031   2.7397569064699108E-030  0.28700202499999999     
 chl2c          10  0.39094662499999999        2.5387016219684602E-002  0.39094662499999999        0.0000000000000000        5.4184867389951898E-016
 chl          10   1.0710987159048522E-030   2.7397569064699108E-030  0.39094662499999999     
 chl2c          11  0.49737575000000001        2.1820572217820047E-002  0.49737575000000001        0.0000000000000000        4.4271470579753469E-006
 chl          11   1.3626886461731518E-030   2.7397569064699108E-030  0.49737575000000001     
 chl2c          12  0.30768942500000002        4.5290941298723353E-002  0.30768942500000002        0.0000000000000000        1.5248998284156537E-012
 chl          12   8.4299422719150570E-031   2.7397569064699108E-030  0.30768942500000002     
 chl2c          13  0.75666275000000005        3.7935816987997487E-002  0.75666275000000005        0.0000000000000000        5.1320939507703441E-006
 chl          13   2.0730719951810157E-030   2.7397569064699108E-030  0.75666275000000005     
 chl2c          14  0.39804095000000000        4.6856526101924839E-002  0.39804095000000000        0.0000000000000000        9.9370509738223999E-011
 chl          14   1.0905354418203445E-030   2.7397569064699108E-030  0.39804095000000000     
 chl2c          15  0.25607262500000000        2.0954299823745293E-002  0.25607262500000000        0.0000000000000000        5.4323458438436399E-016
 chl          15   7.0157674290162950E-031   2.7397569064699108E-030  0.25607262500000000     
 chl2c          16  0.71433214999999994        3.7823443882273475E-002  0.71433214999999994        0.0000000000000000        2.5490197935535108E-006
 chl          16   1.9570964414760002E-030   2.7397569064699108E-030  0.71433214999999994     
 chl2c          17  0.62580860000000005        3.7542254757581245E-002  0.62580860000000005        0.0000000000000000        7.6726695046218693E-006
 chl          17   1.7145634339782660E-030   2.7397569064699108E-030  0.62580860000000005     
 chl2c          18  0.47925950000000000        2.5694475239060960E-002  0.47925950000000000        0.0000000000000000        3.1724831144808657E-006
 chl          18   1.3130545251163163E-030   2.7397569064699108E-030  0.47925950000000000     
 chl2c          19  0.63367130000000005        3.7570220750293731E-002  0.63367130000000005        0.0000000000000000        9.2840804349270472E-016
 chl          19   1.7361053206067670E-030   2.7397569064699108E-030  0.63367130000000005     
 chl2c          20  0.50678202500000002        3.7020645196759419E-002  0.50678202500000002        0.0000000000000000        6.2630444754620866E-006
 chl          20   1.3884595530685570E-030   2.7397569064699108E-030  0.50678202500000002     
 chl2c          21  0.71973185000000006        3.7838475073783531E-002  0.71973185000000006        0.0000000000000000        9.3329272539305717E-016
 chl          21   1.9718903068438660E-030   2.7397569064699108E-030  0.71973185000000006     
 chl2c          22  0.64616892500000001        3.7613353106285476E-002  0.64616892500000001        0.0000000000000000        9.3808881612213338E-016
 chl          22   1.7703457750149877E-030   2.7397569064699108E-030  0.64616892500000001     
 chl2c          23  0.41564179999999995        3.2286562315070731E-002  0.41564179999999995        0.0000000000000000        2.5467076392740805E-021
 chl          23   1.1387574921675853E-030   2.7397569064699108E-030  0.41564179999999995     
 chl2c          24  0.57597492500000003        3.7348402796863071E-002  0.57597492500000003        0.0000000000000000        6.8725388157258985E-006
 chl          24   1.5780312787222389E-030   2.7397569064699108E-030  0.57597492500000003     
 chl2c          25  0.31406487500000002        4.5426679235459781E-002  0.31406487500000002        0.0000000000000000        1.9396568066914202E-021
 chl          25   8.6046141036085926E-031   2.7397569064699108E-030  0.31406487500000002     
 chl2c          26  0.49427735000000000        4.7955660680174553E-002  0.49427735000000000        0.0000000000000000        1.4257052297844903E-011
 chl          26   1.3541997833741454E-030   2.7397569064699108E-030  0.49427735000000000     
 chl2c          27  0.30964730000000001        4.5333133499525620E-002  0.30964730000000001        0.0000000000000000        1.6127406232095020E-010
 chl          27   8.4835832874476041E-031   2.7397569064699108E-030  0.30964730000000001     
 chl2c          28  0.28776342500000002        3.1209236063453518E-002  0.28776342500000002        0.0000000000000000        1.5397813263603856E-010
 chl          28   7.8840183107318624E-031   2.7397569064699108E-030  0.28776342500000002     
 chl2c          29  0.68676297499999994        3.7743217595736761E-002  0.68676297499999994        0.0000000000000000        9.3416936067240992E-016
 chl          29   1.8815636038640724E-030   2.7397569064699108E-030  0.68676297499999994     
 chl2c          30  0.38930277499999999        2.5380056985171612E-002  0.38930277499999999        0.0000000000000000        4.4424745921493526E-006
 chl          30   1.0665949665141517E-030   2.7397569064699108E-030  0.38930277499999999     
 chl2c          31  0.63559385000000002        3.7576959810037038E-002  0.63559385000000002        0.0000000000000000        9.3635922540461370E-016
 chl          31   1.7413726402473004E-030   2.7397569064699108E-030  0.63559385000000002     
 chl2c          32  0.24722667500000001        2.0893126428578448E-002  0.24722667500000001        0.0000000000000000        5.4365808198962345E-016
 chl          32   6.7734099029484203E-031   2.7397569064699108E-030  0.24722667500000001     
 chl2c          33  0.60343137499999999        3.7458922634011876E-002  0.60343137499999999        0.0000000000000000        9.2987519926133009E-016
 chl          33   1.6532552772368845E-030   2.7397569064699108E-030  0.60343137499999999     
 chl2c          34  0.38241020000000003        2.5350269098008315E-002  0.38241020000000003        0.0000000000000000        5.3925614937914656E-016
 chl          34   1.0477109865545401E-030   2.7397569064699108E-030  0.38241020000000003     
 chl2c          35  0.49574644999999995        2.5740370148566064E-002  0.49574644999999995        0.0000000000000000        4.3081162028657147E-006
 chl          35   1.3582247602454402E-030   2.7397569064699108E-030  0.49574644999999995     
 chl2c          36  0.69587337500000002        3.7770393924465726E-002  0.69587337500000002        0.0000000000000000        6.9343032555275765E-006
 chl          36   1.9065238851847761E-030   2.7397569064699108E-030  0.69587337500000002     
 chl2c          37  0.33194060000000003        2.1353674699533250E-002  0.33194060000000003        0.0000000000000000        2.2891445165534123E-006
 chl          37   9.0943655138776608E-031   2.7397569064699108E-030  0.33194060000000003     
 chl2c          38  0.38455722500000000        2.1543295686358745E-002  0.38455722500000000        0.0000000000000000        4.1827560469522599E-006
 chl          38   1.0535933131266534E-030   2.7397569064699108E-030  0.38455722500000000     
 chl2c          39  0.47091117500000002        2.5670077108751441E-002  0.47091117500000002        0.0000000000000000        3.6724772230873978E-006
 chl          39   1.2901821440401108E-030   2.7397569064699108E-030  0.47091117500000002     
 chl2c          40  0.66875547499999999        3.7687445774703773E-002  0.66875547499999999        0.0000000000000000        2.5709939113034069E-006
 chl          40   1.8322274313708156E-030   2.7397569064699108E-030  0.66875547499999999     
 chl2c          41  0.44304987499999998        2.5582381488167241E-002  0.44304987499999998        0.0000000000000000        5.3742563721902819E-016
 chl          41   1.2138489549418806E-030   2.7397569064699108E-030  0.44304987499999998     
 chl2c          42  0.76234377499999995        3.7949995630725070E-002  0.76234377499999995        0.0000000000000000        1.5690212698239650E-006
 chl          42   2.0886366226605934E-030   2.7397569064699108E-030  0.76234377499999995     
 chl2c          43  0.29539925000000000        2.1185090152268007E-002  0.29539925000000000        0.0000000000000000        5.4366016314360402E-016
 chl          43   8.0932213535353175E-031   2.7397569064699108E-030  0.29539925000000000     
 chl2c          44  0.62417262500000004        3.7536352708156646E-002  0.62417262500000004        0.0000000000000000        6.5670446245513245E-006
 chl          44   1.7100812601732039E-030   2.7397569064699108E-030  0.62417262500000004     
 chl2c          45  0.37662252499999999        4.6544927192009838E-002  0.37662252499999999        0.0000000000000000        2.3447849467512965E-021
 chl          45   1.0318541640008866E-030   2.7397569064699108E-030  0.37662252499999999     
 chl2c          46  0.51876034999999998        3.7083195475449568E-002  0.51876034999999998        0.0000000000000000        9.3633230130043893E-016
 chl          46   1.4212772517152482E-030   2.7397569064699108E-030  0.51876034999999998     
 chl2c          47  0.61962282499999999        3.7519784612651236E-002  0.61962282499999999        0.0000000000000000        7.6560784762587666E-006
 chl          47   1.6976159142001470E-030   2.7397569064699108E-030  0.61962282499999999     
 chl2c          48  0.71424949999999998        3.7823212136301673E-002  0.71424949999999998        0.0000000000000000        3.6819429827540001E-006
 chl          48   1.9568700005676806E-030   2.7397569064699108E-030  0.71424949999999998     
 chl2c          49  0.53276120000000005        3.7152990741888416E-002  0.53276120000000005        0.0000000000000000        7.6268654754843834E-006
 chl          49   1.4596361771991975E-030   2.7397569064699108E-030  0.53276120000000005     
 chl2c          50  0.38132569999999999        2.1533072915600981E-002  0.38132569999999999        0.0000000000000000        5.4081548172883147E-016
 chl          50   1.0447397201894732E-030   2.7397569064699108E-030  0.38132569999999999     
 chl2c          51  0.22275920000000002        2.0700971146093840E-002  0.22275920000000002        0.0000000000000000        4.2505387301339158E-006
 chl          51   6.1030605667971219E-031   2.7397569064699108E-030  0.22275920000000002     
 chl2c          52  0.63698869999999996        3.7581825176985564E-002  0.63698869999999996        0.0000000000000000        4.2378262252724906E-006
 chl          52   1.7451941901682899E-030   2.7397569064699108E-030  0.63698869999999996     
 chl2c          53  0.75269794999999995        3.7925801262726190E-002  0.75269794999999995        0.0000000000000000        7.7947146068069064E-007
 chl          53   2.0622094069982433E-030   2.7397569064699108E-030  0.75269794999999995     
 chl2c          54  0.51861124999999997        3.7082433371327092E-002  0.51861124999999997        0.0000000000000000        7.5871190226762918E-006
 chl          54   1.4208687539604935E-030   2.7397569064699108E-030  0.51861124999999997     
 chl2c          55  0.57808280000000001        3.7357235588660491E-002  0.57808280000000001        0.0000000000000000        9.3785076601066897E-016
 chl          55   1.5838063438114642E-030   2.7397569064699108E-030  0.57808280000000001     
 chl2c          56  0.61626080000000005        3.7507394187257688E-002  0.61626080000000005        0.0000000000000000        6.5954281321060252E-006
 chl          56   1.6884047829866727E-030   2.7397569064699108E-030  0.61626080000000005     
 chl2c          57  0.68163462500000005        3.7727617852646313E-002  0.68163462500000005        0.0000000000000000        9.3832806498680291E-016
 chl          57   1.8675131715327777E-030   2.7397569064699108E-030  0.68163462500000005     
 chl2c          58  0.69416802499999997        3.7765358178394853E-002  0.69416802499999997        0.0000000000000000        9.3738707452186901E-016
 chl          58   1.9018516407443275E-030   2.7397569064699108E-030  0.69416802499999997     
 chl2c          59  0.53705127500000005        3.7173699120809672E-002  0.53705127500000005        0.0000000000000000        9.3909862132222778E-016
 chl          59   1.4713899398097215E-030   2.7397569064699108E-030  0.53705127500000005     
 chl2c          60  0.64452155000000000        3.7607757740906807E-002  0.64452155000000000        0.0000000000000000        9.2749835364997745E-016
 chl          60   1.7658323679811918E-030   2.7397569064699108E-030  0.64452155000000000     
 chl2c          61  0.70794139999999994        3.7805373434125003E-002  0.70794139999999994        0.0000000000000000        7.4181962298033999E-006
 chl          61   1.9395873400259775E-030   2.7397569064699108E-030  0.70794139999999994     
 chl2c          62  0.76481592499999995        3.7956103087269030E-002  0.76481592499999995        0.0000000000000000        3.4618337471037143E-006
 chl          62   2.0954097126969233E-030   2.7397569064699108E-030  0.76481592499999995     
 chl2c          63  0.72597904999999996        3.7855601011927406E-002  0.72597904999999996        0.0000000000000000        9.2795665494412045E-016
 chl          63   1.9890061161899647E-030   2.7397569064699108E-030  0.72597904999999996     
 chl2c          64  0.48435739999999999        2.5708982294816416E-002  0.48435739999999999        0.0000000000000000        4.3518215203238373E-006
 chl          64   1.3270215318498091E-030   2.7397569064699108E-030  0.48435739999999999     
 chl2c          65  0.76379975000000000        3.7953597170552002E-002  0.76379975000000000        0.0000000000000000        9.3121429485870950E-016
 chl          65   2.0926256402224911E-030   2.7397569064699108E-030  0.76379975000000000     
 chl2c          66  0.35213202499999996        3.1840477731474713E-002  0.35213202499999996        0.0000000000000000        1.5368122688299326E-011
 chl          66   9.6475614748298512E-031   2.7397569064699108E-030  0.35213202499999996     
 chl2c          67  0.75736760000000003        3.7937587124568600E-002  0.75736760000000003        0.0000000000000000        7.6245902577941344E-006
 chl          67   2.0750031128365409E-030   2.7397569064699108E-030  0.75736760000000003     
 chl2c          68  0.72590779999999999        3.7855407263856986E-002  0.72590779999999999        0.0000000000000000        9.3869668235579253E-016
 chl          68   1.9888109085103788E-030   2.7397569064699108E-030  0.72590779999999999     
 chl2c          69  0.45524217500000003        2.1732330561541505E-002  0.45524217500000003        0.0000000000000000        5.3964195078796286E-016
 chl          69   1.2472528930726339E-030   2.7397569064699108E-030  0.45524217500000003     
 chl2c          70  0.48694062500000002        3.2658010878182209E-002  0.48694062500000002        0.0000000000000000        1.9027621752727232E-010
 chl          70   1.3340989403845250E-030   2.7397569064699108E-030  0.48694062500000002     
 chl2c          71  0.23986107500000001        4.3481058864416305E-002  0.23986107500000001        0.0000000000000000        2.1563015408872315E-021
 chl          71   6.5716103682454723E-031   2.7397569064699108E-030  0.23986107500000001     
 chl2c          72  0.62790522500000001        3.7549776402781669E-002  0.62790522500000001        0.0000000000000000        5.1621561305188858E-006
 chl          72   1.7203076768022935E-030   2.7397569064699108E-030  0.62790522500000001     
 chl2c          73  0.35362212500000001        3.1852614277819484E-002  0.35362212500000001        0.0000000000000000        1.6666003404309859E-011
 chl          73   9.6883865924931604E-031   2.7397569064699108E-030  0.35362212500000001     
 chl2c          74  0.64719590000000005        3.7616827685877569E-002  0.64719590000000005        0.0000000000000000        9.3433171110298633E-016
 chl          74   1.7731594368640097E-030   2.7397569064699108E-030  0.64719590000000005     
 chl2c          75  0.71554212500000003        3.7826830779512356E-002  0.71554212500000003        0.0000000000000000        7.0966121661721216E-006
 chl          75   1.9604114788389062E-030   2.7397569064699108E-030  0.71554212500000003     
 chl2c          76  0.55513977500000000        3.7257729557919804E-002  0.55513977500000000        0.0000000000000000        9.3441853230459223E-016
 chl          76   1.5209480326124023E-030   2.7397569064699108E-030  0.55513977500000000     
 chl2c          77  0.52973029999999999        3.7138172437479272E-002  0.52973029999999999        0.0000000000000000        9.2657778404485645E-016
 chl          77   1.4513322479913777E-030   2.7397569064699108E-030  0.52973029999999999     
 chl2c          78  0.45117492500000000        4.7515248899399322E-002  0.45117492500000000        0.0000000000000000        2.5069883981096172E-020
 chl          78   1.2361096167947940E-030   2.7397569064699108E-030  0.45117492500000000     
 prod   8.7489711748106987E-012   0.0000000000000000        10.000000000000000     
 chl2c           1  0.60826437499999997        3.7477407714772232E-002  0.60826437499999997        0.0000000000000000        9.3573127378285851E-016
 chl           1   2.3997546466421608E-037   3.9452493772007623E-037  0.60826437499999997     
 chl2c           2  0.48302390000000001        3.2640259920490348E-002  0.48302390000000001        0.0000000000000000        8.8564671285668403E-022
 chl           2   1.9056497406480833E-037   3.9452493772007623E-037  0.48302390000000001     
 chl2c           3  0.75128689999999998        3.7922212503796585E-002  0.75128689999999998        0.0000000000000000        7.4172173546652554E-006
 chl           3   2.9640141743240914E-037   3.9452493772007623E-037  0.75128689999999998     
 chl2c           4  0.77318742499999993        3.7976509103863923E-002  0.77318742499999993        0.0000000000000000        9.3912105885500465E-016
 chl           4   3.0504172069407108E-037   3.9452493772007623E-037  0.77318742499999993     
 chl2c           5  0.48489679999999996        2.5710500362372445E-002  0.48489679999999996        0.0000000000000000        5.3956964183503835E-016
 chl           5   1.9130387982066426E-037   3.9452493772007623E-037  0.48489679999999996     
 chl2c           6  0.29222855000000003        3.1261039902252048E-002  0.29222855000000003        0.0000000000000000        1.4117480322803187E-020
 chl           6   1.1529145048877820E-037   3.9452493772007623E-037  0.29222855000000003     
 chl2c           7  0.22770740000000000        4.3064391842467263E-002  0.22770740000000000        0.0000000000000000        8.6420053322499278E-022
 chl           7   8.9836247803400491E-038   3.9452493772007623E-037  0.22770740000000000     
 chl2c           8  0.49578364999999996        4.7969800906495587E-002  0.49578364999999996        0.0000000000000000        9.1827458357822275E-022
 chl           8   1.9559901363888208E-037   3.9452493772007623E-037  0.49578364999999996     
 chl2c           9  0.28700202499999999        2.4803669054600401E-002  0.28700202499999999        0.0000000000000000        5.4184081042678104E-016
 chl           9   1.1322945603866075E-037   3.9452493772007623E-037  0.28700202499999999     
 chl2c          10  0.39094662499999999        2.5387016219684602E-002  0.39094662499999999        0.0000000000000000        5.4184867389951898E-016
 chl          10   1.5423819287999900E-037   3.9452493772007623E-037  0.39094662499999999     
 chl2c          11  0.49737575000000001        2.1820572217820047E-002  0.49737575000000001        0.0000000000000000        4.3926820514488518E-006
 chl          11   1.9622713679222623E-037   3.9452493772007623E-037  0.49737575000000001     
 chl2c          12  0.30768942500000002        4.5290941298723353E-002  0.30768942500000002        0.0000000000000000        3.3968929694929044E-013
 chl          12   1.2139115123525107E-037   3.9452493772007623E-037  0.30768942500000002     
 chl2c          13  0.75666275000000005        3.7935816987997487E-002  0.75666275000000005        0.0000000000000000        4.8332459595630831E-006
 chl          13   2.9852232431885164E-037   3.9452493772007623E-037  0.75666275000000005     
 chl2c          14  0.39804095000000000        4.6856526101924839E-002  0.39804095000000000        0.0000000000000000        5.7173966333165787E-011
 chl          14   1.5703708100878999E-037   3.9452493772007623E-037  0.39804095000000000     
 chl2c          15  0.25607262500000000        2.0954299823745293E-002  0.25607262500000000        0.0000000000000000        5.4323458438436399E-016
 chl          15   1.0102703642994144E-037   3.9452493772007623E-037  0.25607262500000000     
 chl2c          16  0.71433214999999994        3.7823443882273475E-002  0.71433214999999994        0.0000000000000000        2.1923131905642005E-006
 chl          16   2.8182184699019813E-037   3.9452493772007623E-037  0.71433214999999994     
 chl2c          17  0.62580860000000005        3.7542254757581245E-002  0.62580860000000005        0.0000000000000000        7.6116608864972686E-006
 chl          17   2.4689709893968812E-037   3.9452493772007623E-037  0.62580860000000005     
 chl2c          18  0.47925950000000000        2.5694475239060960E-002  0.47925950000000000        0.0000000000000000        3.3135091901809133E-006
 chl          18   1.8907982438925490E-037   3.9452493772007623E-037  0.47925950000000000     
 chl2c          19  0.63367130000000005        3.7570220750293731E-002  0.63367130000000005        0.0000000000000000        9.2840804349270472E-016
 chl          19   2.4999913016749975E-037   3.9452493772007623E-037  0.63367130000000005     
 chl2c          20  0.50678202500000002        3.7020645196759419E-002  0.50678202500000002        0.0000000000000000        6.0299390656362998E-006
 chl          20   1.9993814685077912E-037   3.9452493772007623E-037  0.50678202500000002     
 chl2c          21  0.71973185000000006        3.7838475073783531E-002  0.71973185000000006        0.0000000000000000        9.3329272539305717E-016
 chl          21   2.8395216329640526E-037   3.9452493772007623E-037  0.71973185000000006     
 chl2c          22  0.64616892500000001        3.7613353106285476E-002  0.64616892500000001        0.0000000000000000        9.3808881612213338E-016
 chl          22   2.5492975489227361E-037   3.9452493772007623E-037  0.64616892500000001     
 chl2c          23  0.41564179999999995        3.2286562315070731E-002  0.41564179999999995        0.0000000000000000        1.2642804983655061E-021
 chl          23   1.6398105525886037E-037   3.9452493772007623E-037  0.41564179999999995     
 chl2c          24  0.57597492500000003        3.7348402796863071E-002  0.57597492500000003        0.0000000000000000        6.9166806690578865E-006
 chl          24   2.2723647141395059E-037   3.9452493772007623E-037  0.57597492500000003     
 chl2c          25  0.31406487500000002        4.5426679235459781E-002  0.31406487500000002        0.0000000000000000        9.6291732756043191E-022
 chl          25   1.2390642524943855E-037   3.9452493772007623E-037  0.31406487500000002     
 chl2c          26  0.49427735000000000        4.7955660680174553E-002  0.49427735000000000        0.0000000000000000        6.9898266059149577E-012
 chl          26   1.9500474072519434E-037   3.9452493772007623E-037  0.49427735000000000     
 chl2c          27  0.30964730000000001        4.5333133499525620E-002  0.30964730000000001        0.0000000000000000        8.6319686746738776E-011
 chl          27   1.2216358174768977E-037   3.9452493772007623E-037  0.30964730000000001     
 chl2c          28  0.28776342500000002        3.1209236063453518E-002  0.28776342500000002        0.0000000000000000        8.1455156223634151E-011
 chl          28   1.1352984732624084E-037   3.9452493772007623E-037  0.28776342500000002     
 chl2c          29  0.68676297499999994        3.7743217595736761E-002  0.68676297499999994        0.0000000000000000        9.3416936067240992E-016
 chl          29   2.7094511994032925E-037   3.9452493772007623E-037  0.68676297499999994     
 chl2c          30  0.38930277499999999        2.5380056985171612E-002  0.38930277499999999        0.0000000000000000        4.4053112064413645E-006
 chl          30   1.5358965306112785E-037   3.9452493772007623E-037  0.38930277499999999     
 chl2c          31  0.63559385000000002        3.7576959810037038E-002  0.63559385000000002        0.0000000000000000        9.3635922540461370E-016
 chl          31   2.5075762408651346E-037   3.9452493772007623E-037  0.63559385000000002     
 chl2c          32  0.24722667500000001        2.0893126428578448E-002  0.24722667500000001        0.0000000000000000        5.4365808198962345E-016
 chl          32   9.7537088557116533E-038   3.9452493772007623E-037  0.24722667500000001     
 chl2c          33  0.60343137499999999        3.7458922634011876E-002  0.60343137499999999        0.0000000000000000        9.2987519926133009E-016
 chl          33   2.3806872564021497E-037   3.9452493772007623E-037  0.60343137499999999     
 chl2c          34  0.38241020000000003        2.5350269098008315E-002  0.38241020000000003        0.0000000000000000        5.3925614937914656E-016
 chl          34   1.5087036033852191E-037   3.9452493772007623E-037  0.38241020000000003     
 chl2c          35  0.49574644999999995        2.5740370148566064E-002  0.49574644999999995        0.0000000000000000        4.3003706530391936E-006
 chl          35   1.9558433731119886E-037   3.9452493772007623E-037  0.49574644999999995     
 chl2c          36  0.69587337500000002        3.7770393924465726E-002  0.69587337500000002        0.0000000000000000        6.9735794908987523E-006
 chl          36   2.7453939993293428E-037   3.9452493772007623E-037  0.69587337500000002     
 chl2c          37  0.33194060000000003        2.1353674699533250E-002  0.33194060000000003        0.0000000000000000        2.4896901132979143E-006
 chl          37   1.3095884454176474E-037   3.9452493772007623E-037  0.33194060000000003     
 chl2c          38  0.38455722500000000        2.1543295686358745E-002  0.38455722500000000        0.0000000000000000        4.2037292820427517E-006
 chl          38   1.5171741524293034E-037   3.9452493772007623E-037  0.38455722500000000     
 chl2c          39  0.47091117500000002        2.5670077108751441E-002  0.47091117500000002        0.0000000000000000        3.7615677627348848E-006
 chl          39   1.8578620198856293E-037   3.9452493772007623E-037  0.47091117500000002     
 chl2c          40  0.66875547499999999        3.7687445774703773E-002  0.66875547499999999        0.0000000000000000        2.2143862174137741E-006
 chl          40   2.6384071212433501E-037   3.9452493772007623E-037  0.66875547499999999     
 chl2c          41  0.44304987499999998        2.5582381488167241E-002  0.44304987499999998        0.0000000000000000        5.3742563721902819E-016
 chl          41   1.7479422434126255E-037   3.9452493772007623E-037  0.44304987499999998     
 chl2c          42  0.76234377499999995        3.7949995630725070E-002  0.76234377499999995        0.0000000000000000        1.2232652934962078E-006
 chl          42   3.0076363035316280E-037   3.9452493772007623E-037  0.76234377499999995     
 chl2c          43  0.29539925000000000        2.1185090152268007E-002  0.29539925000000000        0.0000000000000000        5.4366016314360402E-016
 chl          43   1.1654237070880723E-037   3.9452493772007623E-037  0.29539925000000000     
 chl2c          44  0.62417262500000004        3.7536352708156646E-002  0.62417262500000004        0.0000000000000000        6.3640208048669696E-006
 chl          44   2.4625166600470152E-037   3.9452493772007623E-037  0.62417262500000004     
 chl2c          45  0.37662252499999999        4.6544927192009838E-002  0.37662252499999999        0.0000000000000000        1.1640383404858580E-021
 chl          45   1.4858697821960284E-037   3.9452493772007623E-037  0.37662252499999999     
 chl2c          46  0.51876034999999998        3.7083195475449568E-002  0.51876034999999998        0.0000000000000000        9.3633230130043893E-016
 chl          46   2.0466389477539494E-037   3.9452493772007623E-037  0.51876034999999998     
 chl2c          47  0.61962282499999999        3.7519784612651236E-002  0.61962282499999999        0.0000000000000000        7.5914069185337152E-006
 chl          47   2.4445665644306268E-037   3.9452493772007623E-037  0.61962282499999999     
 chl2c          48  0.71424949999999998        3.7823212136301673E-002  0.71424949999999998        0.0000000000000000        3.3350008471921643E-006
 chl          48   2.8178923950409558E-037   3.9452493772007623E-037  0.71424949999999998     
 chl2c          49  0.53276120000000005        3.7152990741888416E-002  0.53276120000000005        0.0000000000000000        7.5617406319092675E-006
 chl          49   2.1018757924967312E-037   3.9452493772007623E-037  0.53276120000000005     
 chl2c          50  0.38132569999999999        2.1533072915600981E-002  0.38132569999999999        0.0000000000000000        5.4081548172883147E-016
 chl          50   1.5044249804356446E-037   3.9452493772007623E-037  0.38132569999999999     
 chl2c          51  0.22275920000000002        2.0700971146093840E-002  0.22275920000000002        0.0000000000000000        4.2604319471459784E-006
 chl          51   8.7884059506574013E-038   3.9452493772007623E-037  0.22275920000000002     
 chl2c          52  0.63698869999999996        3.7581825176985564E-002  0.63698869999999996        0.0000000000000000        3.9024306680844356E-006
 chl          52   2.5130792719589233E-037   3.9452493772007623E-037  0.63698869999999996     
 chl2c          53  0.75269794999999995        3.7925801262726190E-002  0.75269794999999995        0.0000000000000000        4.5443658684276564E-007
 chl          53   2.9695811184577902E-037   3.9452493772007623E-037  0.75269794999999995     
 chl2c          54  0.51861124999999997        3.7082433371327092E-002  0.51861124999999997        0.0000000000000000        7.5216551927042338E-006
 chl          54   2.0460507110718086E-037   3.9452493772007623E-037  0.51861124999999997     
 chl2c          55  0.57808280000000001        3.7357235588660491E-002  0.57808280000000001        0.0000000000000000        9.3785076601066897E-016
 chl          55   2.2806808066704727E-037   3.9452493772007623E-037  0.57808280000000001     
 chl2c          56  0.61626080000000005        3.7507394187257688E-002  0.61626080000000005        0.0000000000000000        6.6763714665404381E-006
 chl          56   2.4313025373932436E-037   3.9452493772007623E-037  0.61626080000000005     
 chl2c          57  0.68163462500000005        3.7727617852646313E-002  0.68163462500000005        0.0000000000000000        9.3832806498680291E-016
 chl          57   2.6892185797597253E-037   3.9452493772007623E-037  0.68163462500000005     
 chl2c          58  0.69416802499999997        3.7765358178394853E-002  0.69416802499999997        0.0000000000000000        9.3738707452186901E-016
 chl          58   2.7386659683039329E-037   3.9452493772007623E-037  0.69416802499999997     
 chl2c          59  0.53705127500000005        3.7173699120809672E-002  0.53705127500000005        0.0000000000000000        9.3909862132222778E-016
 chl          59   2.1188012082186256E-037   3.9452493772007623E-037  0.53705127500000005     
 chl2c          60  0.64452155000000000        3.7607757740906807E-002  0.64452155000000000        0.0000000000000000        9.2749835364997745E-016
 chl          60   2.5427982437299700E-037   3.9452493772007623E-037  0.64452155000000000     
 chl2c          61  0.70794139999999994        3.7805373434125003E-002  0.70794139999999994        0.0000000000000000        7.3990404734523507E-006
 chl          61   2.7930053674446354E-037   3.9452493772007623E-037  0.70794139999999994     
 chl2c          62  0.76481592499999995        3.7956103087269030E-002  0.76481592499999995        0.0000000000000000        3.1147215492005636E-006
 chl          62   3.0173895517794749E-037   3.9452493772007623E-037  0.76481592499999995     
 chl2c          63  0.72597904999999996        3.7855601011927406E-002  0.72597904999999996        0.0000000000000000        9.2795665494412045E-016
 chl          63   2.8641683948733011E-037   3.9452493772007623E-037  0.72597904999999996     
 chl2c          64  0.48435739999999999        2.5708982294816416E-002  0.48435739999999999        0.0000000000000000        4.3281297938984166E-006
 chl          64   1.9109107306925806E-037   3.9452493772007623E-037  0.48435739999999999     
 chl2c          65  0.76379975000000000        3.7953597170552002E-002  0.76379975000000000        0.0000000000000000        9.3121429485870950E-016
 chl          65   3.0133804879935981E-037   3.9452493772007623E-037  0.76379975000000000     
 chl2c          66  0.35213202499999996        3.1840477731474713E-002  0.35213202499999996        0.0000000000000000        7.6169531787467372E-012
 chl          66   1.3892486523236930E-037   3.9452493772007623E-037  0.35213202499999996     
 chl2c          67  0.75736760000000003        3.7937587124568600E-002  0.75736760000000003        0.0000000000000000        7.5590301396496625E-006
 chl          67   2.9880040522120364E-037   3.9452493772007623E-037  0.75736760000000003     
 chl2c          68  0.72590779999999999        3.7855407263856986E-002  0.72590779999999999        0.0000000000000000        9.3869668235579253E-016
 chl          68   2.8638872958551753E-037   3.9452493772007623E-037  0.72590779999999999     
 chl2c          69  0.45524217500000003        2.1732330561541505E-002  0.45524217500000003        0.0000000000000000        5.3964195078796286E-016
 chl          69   1.7960439073942706E-037   3.9452493772007623E-037  0.45524217500000003     
 chl2c          70  0.48694062500000002        3.2658010878182209E-002  0.48694062500000002        0.0000000000000000        1.0061843600306421E-010
 chl          70   1.9211021975150001E-037   3.9452493772007623E-037  0.48694062500000002     
 chl2c          71  0.23986107500000001        4.3481058864416305E-002  0.23986107500000001        0.0000000000000000        1.0704679925831679E-021
 chl          71   9.4631175675845540E-038   3.9452493772007623E-037  0.23986107500000001     
 chl2c          72  0.62790522500000001        3.7549776402781669E-002  0.62790522500000001        0.0000000000000000        4.8610232287551380E-006
 chl          72   2.4772426978723548E-037   3.9452493772007623E-037  0.62790522500000001     
 chl2c          73  0.35362212500000001        3.1852614277819484E-002  0.35362212500000001        0.0000000000000000        8.4570416662469103E-012
 chl          73   1.3951274684206602E-037   3.9452493772007623E-037  0.35362212500000001     
 chl2c          74  0.64719590000000005        3.7616827685877569E-002  0.64719590000000005        0.0000000000000000        9.3433171110298633E-016
 chl          74   2.5533492214018871E-037   3.9452493772007623E-037  0.64719590000000005     
 chl2c          75  0.71554212500000003        3.7826830779512356E-002  0.71554212500000003        0.0000000000000000        7.1175782916323139E-006
 chl          75   2.8229921230171602E-037   3.9452493772007623E-037  0.71554212500000003     
 chl2c          76  0.55513977500000000        3.7257729557919804E-002  0.55513977500000000        0.0000000000000000        9.3441853230459223E-016
 chl          76   2.1901648515781212E-037   3.9452493772007623E-037  0.55513977500000000     
 chl2c          77  0.52973029999999999        3.7138172437479272E-002  0.52973029999999999        0.0000000000000000        9.2657778404485645E-016
 chl          77   2.0899181361593731E-037   3.9452493772007623E-037  0.52973029999999999     
 chl2c          78  0.45117492500000000        4.7515248899399322E-002  0.45117492500000000        0.0000000000000000        1.3537073603486379E-020
 chl          78   1.7799975918648507E-037   3.9452493772007623E-037  0.45117492500000000     
 prod   4.3433049514394368E-012   0.0000000000000000        10.000000000000000     
 fe   1.3001301501551637E-003
(PID.TID 0000.0001) // =======================================================
(PID.TID 0000.0001) // Begin MONITOR dynamic field statistics
(PID.TID 0000.0001) // =======================================================
(PID.TID 0000.0001) %MON time_tsnumber                =                     1
(PID.TID 0000.0001) %MON time_secondsf                =   3.6000000000000000E+03
(PID.TID 0000.0001) %MON dynstat_eta_max              =   0.0000000000000000E+00
(PID.TID 0000.0001) %MON dynstat_eta_min              =   0.0000000000000000E+00
(PID.TID 0000.0001) %MON dynstat_eta_mean             =   0.0000000000000000E+00
(PID.TID 0000.0001) %MON dynstat_eta_sd               =   0.0000000000000000E+00
(PID.TID 0000.0001) %MON dynstat_eta_del2             =   0.0000000000000000E+00
(PID.TID 0000.0001) %MON dynstat_uvel_max             =   0.0000000000000000E+00
(PID.TID 0000.0001) %MON dynstat_uvel_min             =   0.0000000000000000E+00
(PID.TID 0000.0001) %MON dynstat_uvel_mean            =   0.0000000000000000E+00
(PID.TID 0000.0001) %MON dynstat_uvel_sd              =   0.0000000000000000E+00
(PID.TID 0000.0001) %MON dynstat_uvel_del2            =   0.0000000000000000E+00
(PID.TID 0000.0001) %MON dynstat_vvel_max             =   0.0000000000000000E+00
(PID.TID 0000.0001) %MON dynstat_vvel_min             =   0.0000000000000000E+00
(PID.TID 0000.0001) %MON dynstat_vvel_mean            =   0.0000000000000000E+00
(PID.TID 0000.0001) %MON dynstat_vvel_sd              =   0.0000000000000000E+00
(PID.TID 0000.0001) %MON dynstat_vvel_del2            =   0.0000000000000000E+00
(PID.TID 0000.0001) %MON dynstat_wvel_max             =   0.0000000000000000E+00
(PID.TID 0000.0001) %MON dynstat_wvel_min             =   0.0000000000000000E+00
(PID.TID 0000.0001) %MON dynstat_wvel_mean            =   0.0000000000000000E+00
(PID.TID 0000.0001) %MON dynstat_wvel_sd              =   0.0000000000000000E+00
(PID.TID 0000.0001) %MON dynstat_wvel_del2            =   0.0000000000000000E+00
(PID.TID 0000.0001) %MON dynstat_theta_max            =   2.6335817374515290E+01
(PID.TID 0000.0001) %MON dynstat_theta_min            =   2.6737003185747747E+00
(PID.TID 0000.0001) %MON dynstat_theta_mean           =   5.4735670012030040E+00
(PID.TID 0000.0001) %MON dynstat_theta_sd             =   5.1970860626953339E+00
(PID.TID 0000.0001) %MON dynstat_theta_del2           =   0.0000000000000000E+00
(PID.TID 0000.0001) %MON dynstat_salt_max             =   3.5000000000000000E+01
(PID.TID 0000.0001) %MON dynstat_salt_min             =   3.5000000000000000E+01
(PID.TID 0000.0001) %MON dynstat_salt_mean            =   3.5000000000000007E+01
(PID.TID 0000.0001) %MON dynstat_salt_sd              =   7.1054273576010019E-15
(PID.TID 0000.0001) %MON dynstat_salt_del2            =   0.0000000000000000E+00
(PID.TID 0000.0001) %MON dynstat_sst_max              =   2.6335817374515290E+01
(PID.TID 0000.0001) %MON dynstat_sst_min              =   2.6335817374515290E+01
(PID.TID 0000.0001) %MON dynstat_sst_mean             =   2.6335817374515290E+01
(PID.TID 0000.0001) %MON dynstat_sst_sd               =   0.0000000000000000E+00
(PID.TID 0000.0001) %MON dynstat_sst_del2             =   0.0000000000000000E+00
(PID.TID 0000.0001) %MON dynstat_sss_max              =   3.5000000000000000E+01
(PID.TID 0000.0001) %MON dynstat_sss_min              =   3.5000000000000000E+01
(PID.TID 0000.0001) %MON dynstat_sss_mean             =   3.5000000000000000E+01
(PID.TID 0000.0001) %MON dynstat_sss_sd               =   0.0000000000000000E+00
(PID.TID 0000.0001) %MON dynstat_sss_del2             =   0.0000000000000000E+00
(PID.TID 0000.0001) %MON forcing_qnet_max             =   0.0000000000000000E+00
(PID.TID 0000.0001) %MON forcing_qnet_min             =   0.0000000000000000E+00
(PID.TID 0000.0001) %MON forcing_qnet_mean            =   0.0000000000000000E+00
(PID.TID 0000.0001) %MON forcing_qnet_sd              =   0.0000000000000000E+00
(PID.TID 0000.0001) %MON forcing_qnet_del2            =   0.0000000000000000E+00
(PID.TID 0000.0001) %MON forcing_qsw_max              =   0.0000000000000000E+00
(PID.TID 0000.0001) %MON forcing_qsw_min              =   0.0000000000000000E+00
(PID.TID 0000.0001) %MON forcing_qsw_mean             =   0.0000000000000000E+00
(PID.TID 0000.0001) %MON forcing_qsw_sd               =   0.0000000000000000E+00
(PID.TID 0000.0001) %MON forcing_qsw_del2             =   0.0000000000000000E+00
(PID.TID 0000.0001) %MON forcing_empmr_max            =   0.0000000000000000E+00
(PID.TID 0000.0001) %MON forcing_empmr_min            =   0.0000000000000000E+00
(PID.TID 0000.0001) %MON forcing_empmr_mean           =   0.0000000000000000E+00
(PID.TID 0000.0001) %MON forcing_empmr_sd             =   0.0000000000000000E+00
(PID.TID 0000.0001) %MON forcing_empmr_del2           =   0.0000000000000000E+00
(PID.TID 0000.0001) %MON forcing_fu_max               =   0.0000000000000000E+00
(PID.TID 0000.0001) %MON forcing_fu_min               =   0.0000000000000000E+00
(PID.TID 0000.0001) %MON forcing_fu_mean              =   0.0000000000000000E+00
(PID.TID 0000.0001) %MON forcing_fu_sd                =   0.0000000000000000E+00
(PID.TID 0000.0001) %MON forcing_fu_del2              =   0.0000000000000000E+00
(PID.TID 0000.0001) %MON forcing_fv_max               =   0.0000000000000000E+00
(PID.TID 0000.0001) %MON forcing_fv_min               =   0.0000000000000000E+00
(PID.TID 0000.0001) %MON forcing_fv_mean              =   0.0000000000000000E+00
(PID.TID 0000.0001) %MON forcing_fv_sd                =   0.0000000000000000E+00
(PID.TID 0000.0001) %MON forcing_fv_del2              =   0.0000000000000000E+00
(PID.TID 0000.0001) %MON advcfl_uvel_max              =   0.0000000000000000E+00
(PID.TID 0000.0001) %MON advcfl_vvel_max              =   0.0000000000000000E+00
(PID.TID 0000.0001) %MON advcfl_wvel_max              =   0.0000000000000000E+00
(PID.TID 0000.0001) %MON advcfl_W_hf_max              =   0.0000000000000000E+00
(PID.TID 0000.0001) %MON pe_b_mean                    =   0.0000000000000000E+00
(PID.TID 0000.0001) %MON ke_max                       =   0.0000000000000000E+00
(PID.TID 0000.0001) %MON ke_mean                      =   0.0000000000000000E+00
(PID.TID 0000.0001) %MON ke_vol                       =   4.1199767883484609E+13
(PID.TID 0000.0001) %MON vort_r_min                   =   0.0000000000000000E+00
(PID.TID 0000.0001) %MON vort_r_max                   =   0.0000000000000000E+00
(PID.TID 0000.0001) %MON vort_a_mean                  =  -4.5067801836624727E-05
(PID.TID 0000.0001) %MON vort_a_sd                    =  -4.1359030627651384E-25
(PID.TID 0000.0001) %MON vort_p_mean                  =  -4.5067801836624727E-05
(PID.TID 0000.0001) %MON vort_p_sd                    =   0.0000000000000000E+00
(PID.TID 0000.0001) %MON surfExpan_theta_mean         =   0.0000000000000000E+00
(PID.TID 0000.0001) %MON surfExpan_salt_mean          =   0.0000000000000000E+00
(PID.TID 0000.0001) // =======================================================
(PID.TID 0000.0001) // End MONITOR dynamic field statistics
(PID.TID 0000.0001) // =======================================================
(PID.TID 0000.0001) // =======================================================
(PID.TID 0000.0001) // Begin MONITOR ptracer field statistics
(PID.TID 0000.0001) // =======================================================
(PID.TID 0000.0001) %MON trcstat_ptracer01_max        =   2.0000000000000005E+03
(PID.TID 0000.0001) %MON trcstat_ptracer01_min        =   1.9999998167431302E+03
(PID.TID 0000.0001) %MON trcstat_ptracer01_mean       =   1.9999999945767286E+03
(PID.TID 0000.0001) %MON trcstat_ptracer01_sd         =   2.8387954136791976E-05
(PID.TID 0000.0001) %MON trcstat_ptracer01_del2       =   0.0000000000000000E+00
(PID.TID 0000.0001) %MON trcstat_ptracer02_max        =   2.5604811522181962E-02
(PID.TID 0000.0001) %MON trcstat_ptracer02_min        =   1.8763301829745543E-07
(PID.TID 0000.0001) %MON trcstat_ptracer02_mean       =   6.0489443672670994E-04
(PID.TID 0000.0001) %MON trcstat_ptracer02_sd         =   3.2469472353347903E-03
(PID.TID 0000.0001) %MON trcstat_ptracer02_del2       =   0.0000000000000000E+00
(PID.TID 0000.0001) %MON trcstat_ptracer03_max        =   1.8255237359398862E-02
(PID.TID 0000.0001) %MON trcstat_ptracer03_min        =   3.8791489719393813E-06
(PID.TID 0000.0001) %MON trcstat_ptracer03_mean       =   6.0469595281854795E-04
(PID.TID 0000.0001) %MON trcstat_ptracer03_sd         =   1.9426793976385461E-03
(PID.TID 0000.0001) %MON trcstat_ptracer03_del2       =   0.0000000000000000E+00
(PID.TID 0000.0001) %MON trcstat_ptracer04_max        =   3.3903497946886560E+01
(PID.TID 0000.0001) %MON trcstat_ptracer04_min        =   4.6345553333618353E-02
(PID.TID 0000.0001) %MON trcstat_ptracer04_mean       =   2.3502390243775611E+01
(PID.TID 0000.0001) %MON trcstat_ptracer04_sd         =   7.8162013523276324E+00
(PID.TID 0000.0001) %MON trcstat_ptracer04_del2       =   0.0000000000000000E+00
(PID.TID 0000.0001) %MON trcstat_ptracer05_max        =   2.2436999316291510E+00
(PID.TID 0000.0001) %MON trcstat_ptracer05_min        =   2.1025169165933474E-01
(PID.TID 0000.0001) %MON trcstat_ptracer05_mean       =   1.5821338554865128E+00
(PID.TID 0000.0001) %MON trcstat_ptracer05_sd         =   4.6735034789539487E-01
(PID.TID 0000.0001) %MON trcstat_ptracer05_del2       =   0.0000000000000000E+00
(PID.TID 0000.0001) %MON trcstat_ptracer06_max        =   3.9387401347897352E+01
(PID.TID 0000.0001) %MON trcstat_ptracer06_min        =   1.2247990229843850E+00
(PID.TID 0000.0001) %MON trcstat_ptracer06_mean       =   2.9621889385930494E+01
(PID.TID 0000.0001) %MON trcstat_ptracer06_sd         =   1.1270586830032947E+01
(PID.TID 0000.0001) %MON trcstat_ptracer06_del2       =   0.0000000000000000E+00
(PID.TID 0000.0001) %MON trcstat_ptracer07_max        =   1.3001301501551637E-03
(PID.TID 0000.0001) %MON trcstat_ptracer07_min        =   1.2999853935924228E-03
(PID.TID 0000.0001) %MON trcstat_ptracer07_mean       =   1.2999859146878413E-03
(PID.TID 0000.0001) %MON trcstat_ptracer07_sd         =   7.7294728113684323E-09
(PID.TID 0000.0001) %MON trcstat_ptracer07_del2       =   0.0000000000000000E+00
(PID.TID 0000.0001) %MON trcstat_ptracer08_max        =   1.8291808089418980E-04
(PID.TID 0000.0001) %MON trcstat_ptracer08_min        =  -2.4900000000000013E-19
(PID.TID 0000.0001) %MON trcstat_ptracer08_mean       =   5.4541418829669865E-06
(PID.TID 0000.0001) %MON trcstat_ptracer08_sd         =   2.8594825586043744E-05
(PID.TID 0000.0001) %MON trcstat_ptracer08_del2       =   0.0000000000000000E+00
(PID.TID 0000.0001) %MON trcstat_ptracer09_max        =   8.1804703590726349E-02
(PID.TID 0000.0001) %MON trcstat_ptracer09_min        =  -3.3199999999999682E-20
(PID.TID 0000.0001) %MON trcstat_ptracer09_mean       =   3.4350603237737645E-03
(PID.TID 0000.0001) %MON trcstat_ptracer09_sd         =   1.4788162936304080E-02
(PID.TID 0000.0001) %MON trcstat_ptracer09_del2       =   0.0000000000000000E+00
(PID.TID 0000.0001) %MON trcstat_ptracer10_max        =   5.1127939744203968E-03
(PID.TID 0000.0001) %MON trcstat_ptracer10_min        =  -2.0749999999999801E-21
(PID.TID 0000.0001) %MON trcstat_ptracer10_mean       =   2.1469127023586028E-04
(PID.TID 0000.0001) %MON trcstat_ptracer10_sd         =   9.2426018351900500E-04
(PID.TID 0000.0001) %MON trcstat_ptracer10_del2       =   0.0000000000000000E+00
(PID.TID 0000.0001) %MON trcstat_ptracer11_max        =   5.1127936147087289E-06
(PID.TID 0000.0001) %MON trcstat_ptracer11_min        =  -2.0749999999999803E-24
(PID.TID 0000.0001) %MON trcstat_ptracer11_mean       =   2.1469127054223584E-07
(PID.TID 0000.0001) %MON trcstat_ptracer11_sd         =   9.2426018317724553E-07
(PID.TID 0000.0001) %MON trcstat_ptracer11_del2       =   0.0000000000000000E+00
(PID.TID 0000.0001) %MON trcstat_ptracer12_max        =   1.0358017152577734E-04
(PID.TID 0000.0001) %MON trcstat_ptracer12_min        =  -1.4100000000000006E-19
(PID.TID 0000.0001) %MON trcstat_ptracer12_mean       =   3.0884964702254656E-06
(PID.TID 0000.0001) %MON trcstat_ptracer12_sd         =   1.6192258810715301E-05
(PID.TID 0000.0001) %MON trcstat_ptracer12_del2       =   0.0000000000000000E+00
(PID.TID 0000.0001) %MON trcstat_ptracer13_max        =   4.3557312228901610E-03
(PID.TID 0000.0001) %MON trcstat_ptracer13_min        =   1.8781822848050471E-05
(PID.TID 0000.0001) %MON trcstat_ptracer13_mean       =   1.2622687184937142E-03
(PID.TID 0000.0001) %MON trcstat_ptracer13_sd         =   1.5450416761962262E-03
(PID.TID 0000.0001) %MON trcstat_ptracer13_del2       =   0.0000000000000000E+00
(PID.TID 0000.0001) %MON trcstat_ptracer14_max        =   2.7223320143063506E-04
(PID.TID 0000.0001) %MON trcstat_ptracer14_min        =   1.1738639280031545E-06
(PID.TID 0000.0001) %MON trcstat_ptracer14_mean       =   7.8891794905857135E-05
(PID.TID 0000.0001) %MON trcstat_ptracer14_sd         =   9.6565104762264139E-05
(PID.TID 0000.0001) %MON trcstat_ptracer14_del2       =   0.0000000000000000E+00
(PID.TID 0000.0001) %MON trcstat_ptracer15_max        =   1.6249560323348945E-02
(PID.TID 0000.0001) %MON trcstat_ptracer15_min        =   1.1386925448277799E-03
(PID.TID 0000.0001) %MON trcstat_ptracer15_mean       =   5.4889823684651342E-03
(PID.TID 0000.0001) %MON trcstat_ptracer15_sd         =   5.1715467239950349E-03
(PID.TID 0000.0001) %MON trcstat_ptracer15_del2       =   0.0000000000000000E+00
(PID.TID 0000.0001) %MON trcstat_ptracer16_max        =   2.7223321719345594E-07
(PID.TID 0000.0001) %MON trcstat_ptracer16_min        =   1.1738637993409100E-09
(PID.TID 0000.0001) %MON trcstat_ptracer16_mean       =   7.8891795432038208E-08
(PID.TID 0000.0001) %MON trcstat_ptracer16_sd         =   9.6565106819749876E-08
(PID.TID 0000.0001) %MON trcstat_ptracer16_del2       =   0.0000000000000000E+00
(PID.TID 0000.0001) %MON trcstat_ptracer17_max        =   0.0000000000000000E+00
(PID.TID 0000.0001) %MON trcstat_ptracer17_min        =   0.0000000000000000E+00
(PID.TID 0000.0001) %MON trcstat_ptracer17_mean       =   0.0000000000000000E+00
(PID.TID 0000.0001) %MON trcstat_ptracer17_sd         =   0.0000000000000000E+00
(PID.TID 0000.0001) %MON trcstat_ptracer17_del2       =   0.0000000000000000E+00
(PID.TID 0000.0001) %MON trcstat_ptracer18_max        =   8.7784040723694660E-04
(PID.TID 0000.0001) %MON trcstat_ptracer18_min        =   5.0000000000001148E-21
(PID.TID 0000.0001) %MON trcstat_ptracer18_mean       =   2.6186424477903026E-05
(PID.TID 0000.0001) %MON trcstat_ptracer18_sd         =   1.3722425373637710E-04
(PID.TID 0000.0001) %MON trcstat_ptracer18_del2       =   0.0000000000000000E+00
(PID.TID 0000.0001) %MON trcstat_ptracer19_max        =   8.8267283073371330E-04
(PID.TID 0000.0001) %MON trcstat_ptracer19_min        =   5.0000000000000005E-21
(PID.TID 0000.0001) %MON trcstat_ptracer19_mean       =   2.6309653884384815E-05
(PID.TID 0000.0001) %MON trcstat_ptracer19_sd         =   1.3799463314355075E-04
(PID.TID 0000.0001) %MON trcstat_ptracer19_del2       =   0.0000000000000000E+00
(PID.TID 0000.0001) %MON trcstat_ptracer20_max        =   8.7784040723698259E-04
(PID.TID 0000.0001) %MON trcstat_ptracer20_min        =   5.0000000000001148E-21
(PID.TID 0000.0001) %MON trcstat_ptracer20_mean       =   2.6175379415818153E-05
(PID.TID 0000.0001) %MON trcstat_ptracer20_sd         =   1.3721453424022853E-04
(PID.TID 0000.0001) %MON trcstat_ptracer20_del2       =   0.0000000000000000E+00
(PID.TID 0000.0001) %MON trcstat_ptracer21_max        =   8.8624327199237718E-04
(PID.TID 0000.0001) %MON trcstat_ptracer21_min        =   5.0000000000001148E-21
(PID.TID 0000.0001) %MON trcstat_ptracer21_mean       =   2.6426177513955914E-05
(PID.TID 0000.0001) %MON trcstat_ptracer21_sd         =   1.3849856930387030E-04
(PID.TID 0000.0001) %MON trcstat_ptracer21_del2       =   0.0000000000000000E+00
(PID.TID 0000.0001) %MON trcstat_ptracer22_max        =   8.8516064869240249E-04
(PID.TID 0000.0001) %MON trcstat_ptracer22_min        =   5.0000000000000005E-21
(PID.TID 0000.0001) %MON trcstat_ptracer22_mean       =   2.6378612758013323E-05
(PID.TID 0000.0001) %MON trcstat_ptracer22_sd         =   1.3835161289294293E-04
(PID.TID 0000.0001) %MON trcstat_ptracer22_del2       =   0.0000000000000000E+00
(PID.TID 0000.0001) %MON trcstat_ptracer23_max        =   8.7785894917781927E-04
(PID.TID 0000.0001) %MON trcstat_ptracer23_min        =   5.0000000000000005E-21
(PID.TID 0000.0001) %MON trcstat_ptracer23_mean       =   2.6175379956657536E-05
(PID.TID 0000.0001) %MON trcstat_ptracer23_sd         =   1.3723205438115658E-04
(PID.TID 0000.0001) %MON trcstat_ptracer23_del2       =   0.0000000000000000E+00
(PID.TID 0000.0001) %MON trcstat_ptracer24_max        =   8.8210550254385928E-04
(PID.TID 0000.0001) %MON trcstat_ptracer24_min        =   5.0000000000000005E-21
(PID.TID 0000.0001) %MON trcstat_ptracer24_mean       =   2.6293011420128424E-05
(PID.TID 0000.0001) %MON trcstat_ptracer24_sd         =   1.3789177691318633E-04
(PID.TID 0000.0001) %MON trcstat_ptracer24_del2       =   0.0000000000000000E+00
(PID.TID 0000.0001) %MON trcstat_ptracer25_max        =   8.7785894917772873E-04
(PID.TID 0000.0001) %MON trcstat_ptracer25_min        =   5.0000000000000005E-21
(PID.TID 0000.0001) %MON trcstat_ptracer25_mean       =   2.6180726971841618E-05
(PID.TID 0000.0001) %MON trcstat_ptracer25_sd         =   1.3725224865984676E-04
(PID.TID 0000.0001) %MON trcstat_ptracer25_del2       =   0.0000000000000000E+00
(PID.TID 0000.0001) %MON trcstat_ptracer26_max        =   8.7953312823629143E-04
(PID.TID 0000.0001) %MON trcstat_ptracer26_min        =   5.0000000000000005E-21
(PID.TID 0000.0001) %MON trcstat_ptracer26_mean       =   2.6252526328091071E-05
(PID.TID 0000.0001) %MON trcstat_ptracer26_sd         =   1.3756437975006629E-04
(PID.TID 0000.0001) %MON trcstat_ptracer26_del2       =   0.0000000000000000E+00
(PID.TID 0000.0001) %MON trcstat_ptracer27_max        =   8.8658742348957998E-04
(PID.TID 0000.0001) %MON trcstat_ptracer27_min        =   5.0000000000000005E-21
(PID.TID 0000.0001) %MON trcstat_ptracer27_mean       =   2.6422848788350764E-05
(PID.TID 0000.0001) %MON trcstat_ptracer27_sd         =   1.3858013332944735E-04
(PID.TID 0000.0001) %MON trcstat_ptracer27_del2       =   0.0000000000000000E+00
(PID.TID 0000.0001) %MON trcstat_ptracer28_max        =   8.7785894917795316E-04
(PID.TID 0000.0001) %MON trcstat_ptracer28_min        =   5.0000000000000005E-21
(PID.TID 0000.0001) %MON trcstat_ptracer28_mean       =   2.6175379413914762E-05
(PID.TID 0000.0001) %MON trcstat_ptracer28_sd         =   1.3723205447393897E-04
(PID.TID 0000.0001) %MON trcstat_ptracer28_del2       =   0.0000000000000000E+00
(PID.TID 0000.0001) %MON trcstat_ptracer29_max        =   8.7785894917772678E-04
(PID.TID 0000.0001) %MON trcstat_ptracer29_min        =   5.0000000000000005E-21
(PID.TID 0000.0001) %MON trcstat_ptracer29_mean       =   2.6175379413907724E-05
(PID.TID 0000.0001) %MON trcstat_ptracer29_sd         =   1.3723205447390538E-04
(PID.TID 0000.0001) %MON trcstat_ptracer29_del2       =   0.0000000000000000E+00
(PID.TID 0000.0001) %MON trcstat_ptracer30_max        =   8.7784040716883192E-04
(PID.TID 0000.0001) %MON trcstat_ptracer30_min        =   5.0000000000001148E-21
(PID.TID 0000.0001) %MON trcstat_ptracer30_mean       =   2.6175395628302247E-05
(PID.TID 0000.0001) %MON trcstat_ptracer30_sd         =   1.3721453122246264E-04
(PID.TID 0000.0001) %MON trcstat_ptracer30_del2       =   0.0000000000000000E+00
(PID.TID 0000.0001) %MON trcstat_ptracer31_max        =   8.7785894917775215E-04
(PID.TID 0000.0001) %MON trcstat_ptracer31_min        =   5.0000000000000005E-21
(PID.TID 0000.0001) %MON trcstat_ptracer31_mean       =   2.6175379413908954E-05
(PID.TID 0000.0001) %MON trcstat_ptracer31_sd         =   1.3723205447391059E-04
(PID.TID 0000.0001) %MON trcstat_ptracer31_del2       =   0.0000000000000000E+00
(PID.TID 0000.0001) %MON trcstat_ptracer32_max        =   8.8789672026193939E-04
(PID.TID 0000.0001) %MON trcstat_ptracer32_min        =   5.0000000000000005E-21
(PID.TID 0000.0001) %MON trcstat_ptracer32_mean       =   2.6461486502444341E-05
(PID.TID 0000.0001) %MON trcstat_ptracer32_sd         =   1.3878334373922742E-04
(PID.TID 0000.0001) %MON trcstat_ptracer32_del2       =   0.0000000000000000E+00
(PID.TID 0000.0001) %MON trcstat_ptracer33_max        =   8.7784040723700287E-04
(PID.TID 0000.0001) %MON trcstat_ptracer33_min        =   5.0000000000001148E-21
(PID.TID 0000.0001) %MON trcstat_ptracer33_mean       =   2.6175630847905939E-05
(PID.TID 0000.0001) %MON trcstat_ptracer33_sd         =   1.3721449579489432E-04
(PID.TID 0000.0001) %MON trcstat_ptracer33_del2       =   0.0000000000000000E+00
(PID.TID 0000.0001) %MON trcstat_ptracer34_max        =   8.7784040723700254E-04
(PID.TID 0000.0001) %MON trcstat_ptracer34_min        =   5.0000000000001148E-21
(PID.TID 0000.0001) %MON trcstat_ptracer34_mean       =   2.6175379415818743E-05
(PID.TID 0000.0001) %MON trcstat_ptracer34_sd         =   1.3721453424023167E-04
(PID.TID 0000.0001) %MON trcstat_ptracer34_del2       =   0.0000000000000000E+00
(PID.TID 0000.0001) %MON trcstat_ptracer35_max        =   8.7785894917797301E-04
(PID.TID 0000.0001) %MON trcstat_ptracer35_min        =   5.0000000000000005E-21
(PID.TID 0000.0001) %MON trcstat_ptracer35_mean       =   2.6175379413915341E-05
(PID.TID 0000.0001) %MON trcstat_ptracer35_sd         =   1.3723205447394208E-04
(PID.TID 0000.0001) %MON trcstat_ptracer35_del2       =   0.0000000000000000E+00
(PID.TID 0000.0001) %MON trcstat_ptracer36_max        =   8.8206663981274752E-04
(PID.TID 0000.0001) %MON trcstat_ptracer36_min        =   5.0000000000001148E-21
(PID.TID 0000.0001) %MON trcstat_ptracer36_mean       =   2.6311446540551252E-05
(PID.TID 0000.0001) %MON trcstat_ptracer36_sd         =   1.3787243027697105E-04
(PID.TID 0000.0001) %MON trcstat_ptracer36_del2       =   0.0000000000000000E+00
(PID.TID 0000.0001) %MON trcstat_ptracer37_max        =   8.7784040716887355E-04
(PID.TID 0000.0001) %MON trcstat_ptracer37_min        =   5.0000000000001148E-21
(PID.TID 0000.0001) %MON trcstat_ptracer37_mean       =   2.6175379415605328E-05
(PID.TID 0000.0001) %MON trcstat_ptracer37_sd         =   1.3721453422965797E-04
(PID.TID 0000.0001) %MON trcstat_ptracer37_del2       =   0.0000000000000000E+00
(PID.TID 0000.0001) %MON trcstat_ptracer38_max        =   8.7929023014786042E-04
(PID.TID 0000.0001) %MON trcstat_ptracer38_min        =   5.0000000000001148E-21
(PID.TID 0000.0001) %MON trcstat_ptracer38_mean       =   2.6250480396315319E-05
(PID.TID 0000.0001) %MON trcstat_ptracer38_sd         =   1.3751576630900367E-04
(PID.TID 0000.0001) %MON trcstat_ptracer38_del2       =   0.0000000000000000E+00
(PID.TID 0000.0001) %MON trcstat_ptracer39_max        =   8.8784942622896945E-04
(PID.TID 0000.0001) %MON trcstat_ptracer39_min        =   5.0000000000001148E-21
(PID.TID 0000.0001) %MON trcstat_ptracer39_mean       =   2.6473581095492978E-05
(PID.TID 0000.0001) %MON trcstat_ptracer39_sd         =   1.3879070559185766E-04
(PID.TID 0000.0001) %MON trcstat_ptracer39_del2       =   0.0000000000000000E+00
(PID.TID 0000.0001) %MON trcstat_ptracer40_max        =   8.7785894917780094E-04
(PID.TID 0000.0001) %MON trcstat_ptracer40_min        =   5.0000000000000005E-21
(PID.TID 0000.0001) %MON trcstat_ptracer40_mean       =   2.6175379846167252E-05
(PID.TID 0000.0001) %MON trcstat_ptracer40_sd         =   1.3723205440866864E-04
(PID.TID 0000.0001) %MON trcstat_ptracer40_del2       =   0.0000000000000000E+00
(PID.TID 0000.0001) %MON trcstat_ptracer41_max        =   8.7784040716878833E-04
(PID.TID 0000.0001) %MON trcstat_ptracer41_min        =   5.0000000000001148E-21
(PID.TID 0000.0001) %MON trcstat_ptracer41_mean       =   2.6175379413912481E-05
(PID.TID 0000.0001) %MON trcstat_ptracer41_sd         =   1.3721453422996710E-04
(PID.TID 0000.0001) %MON trcstat_ptracer41_del2       =   0.0000000000000000E+00
(PID.TID 0000.0001) %MON trcstat_ptracer42_max        =   8.7785894917773849E-04
(PID.TID 0000.0001) %MON trcstat_ptracer42_min        =   5.0000000000000005E-21
(PID.TID 0000.0001) %MON trcstat_ptracer42_mean       =   2.6175379663867472E-05
(PID.TID 0000.0001) %MON trcstat_ptracer42_sd         =   1.3723205443497399E-04
(PID.TID 0000.0001) %MON trcstat_ptracer42_del2       =   0.0000000000000000E+00
(PID.TID 0000.0001) %MON trcstat_ptracer43_max        =   8.7785894917771898E-04
(PID.TID 0000.0001) %MON trcstat_ptracer43_min        =   5.0000000000000005E-21
(PID.TID 0000.0001) %MON trcstat_ptracer43_mean       =   2.6175379413907508E-05
(PID.TID 0000.0001) %MON trcstat_ptracer43_sd         =   1.3723205447390414E-04
(PID.TID 0000.0001) %MON trcstat_ptracer43_del2       =   0.0000000000000000E+00
(PID.TID 0000.0001) %MON trcstat_ptracer44_max        =   8.7785894917775031E-04
(PID.TID 0000.0001) %MON trcstat_ptracer44_min        =   5.0000000000000005E-21
(PID.TID 0000.0001) %MON trcstat_ptracer44_mean       =   2.6175379413908893E-05
(PID.TID 0000.0001) %MON trcstat_ptracer44_sd         =   1.3723205447391029E-04
(PID.TID 0000.0001) %MON trcstat_ptracer44_del2       =   0.0000000000000000E+00
(PID.TID 0000.0001) %MON trcstat_ptracer45_max        =   8.7785894917774890E-04
(PID.TID 0000.0001) %MON trcstat_ptracer45_min        =   5.0000000000000005E-21
(PID.TID 0000.0001) %MON trcstat_ptracer45_mean       =   2.6175379413908849E-05
(PID.TID 0000.0001) %MON trcstat_ptracer45_sd         =   1.3723205447391007E-04
(PID.TID 0000.0001) %MON trcstat_ptracer45_del2       =   0.0000000000000000E+00
(PID.TID 0000.0001) %MON trcstat_ptracer46_max        =   8.8723421232357407E-04
(PID.TID 0000.0001) %MON trcstat_ptracer46_min        =   5.0000000000001148E-21
(PID.TID 0000.0001) %MON trcstat_ptracer46_mean       =   2.6448227269698742E-05
(PID.TID 0000.0001) %MON trcstat_ptracer46_sd         =   1.3867729158061024E-04
(PID.TID 0000.0001) %MON trcstat_ptracer46_del2       =   0.0000000000000000E+00
(PID.TID 0000.0001) %MON trcstat_ptracer47_max        =   8.7785894917801865E-04
(PID.TID 0000.0001) %MON trcstat_ptracer47_min        =   5.0000000000000005E-21
(PID.TID 0000.0001) %MON trcstat_ptracer47_mean       =   2.6175379413916679E-05
(PID.TID 0000.0001) %MON trcstat_ptracer47_sd         =   1.3723205447394919E-04
(PID.TID 0000.0001) %MON trcstat_ptracer47_del2       =   0.0000000000000000E+00
(PID.TID 0000.0001) %MON trcstat_ptracer48_max        =   8.8751841554041914E-04
(PID.TID 0000.0001) %MON trcstat_ptracer48_min        =   5.0000000000001148E-21
(PID.TID 0000.0001) %MON trcstat_ptracer48_mean       =   2.6442880099977595E-05
(PID.TID 0000.0001) %MON trcstat_ptracer48_sd         =   1.3869551293028113E-04
(PID.TID 0000.0001) %MON trcstat_ptracer48_del2       =   0.0000000000000000E+00
(PID.TID 0000.0001) %MON trcstat_ptracer49_max        =   8.8770408863241283E-04
(PID.TID 0000.0001) %MON trcstat_ptracer49_min        =   5.0000000000000005E-21
(PID.TID 0000.0001) %MON trcstat_ptracer49_mean       =   2.6456592916605386E-05
(PID.TID 0000.0001) %MON trcstat_ptracer49_sd         =   1.3873431237505709E-04
(PID.TID 0000.0001) %MON trcstat_ptracer49_del2       =   0.0000000000000000E+00
(PID.TID 0000.0001) %MON trcstat_ptracer50_max        =   8.8305633208365475E-04
(PID.TID 0000.0001) %MON trcstat_ptracer50_min        =   5.0000000000001148E-21
(PID.TID 0000.0001) %MON trcstat_ptracer50_mean       =   2.6335351299119831E-05
(PID.TID 0000.0001) %MON trcstat_ptracer50_sd         =   1.3800684629034217E-04
(PID.TID 0000.0001) %MON trcstat_ptracer50_del2       =   0.0000000000000000E+00
(PID.TID 0000.0001) %MON trcstat_ptracer51_max        =   8.8466889279337452E-04
(PID.TID 0000.0001) %MON trcstat_ptracer51_min        =   5.0000000000000005E-21
(PID.TID 0000.0001) %MON trcstat_ptracer51_mean       =   2.6352280956759286E-05
(PID.TID 0000.0001) %MON trcstat_ptracer51_sd         =   1.3823980326828315E-04
(PID.TID 0000.0001) %MON trcstat_ptracer51_del2       =   0.0000000000000000E+00
(PID.TID 0000.0001) %MON trcstat_ptracer52_max        =   8.7785894917787413E-04
(PID.TID 0000.0001) %MON trcstat_ptracer52_min        =   5.0000000000000005E-21
(PID.TID 0000.0001) %MON trcstat_ptracer52_mean       =   2.6175379413912454E-05
(PID.TID 0000.0001) %MON trcstat_ptracer52_sd         =   1.3723205447392663E-04
(PID.TID 0000.0001) %MON trcstat_ptracer52_del2       =   0.0000000000000000E+00
(PID.TID 0000.0001) %MON trcstat_ptracer53_max        =   8.7784040723687981E-04
(PID.TID 0000.0001) %MON trcstat_ptracer53_min        =   5.0000000000001148E-21
(PID.TID 0000.0001) %MON trcstat_ptracer53_mean       =   2.6175379415815121E-05
(PID.TID 0000.0001) %MON trcstat_ptracer53_sd         =   1.3721453424021257E-04
(PID.TID 0000.0001) %MON trcstat_ptracer53_del2       =   0.0000000000000000E+00
(PID.TID 0000.0001) %MON trcstat_ptracer54_max        =   8.7785894917784247E-04
(PID.TID 0000.0001) %MON trcstat_ptracer54_min        =   5.0000000000000005E-21
(PID.TID 0000.0001) %MON trcstat_ptracer54_mean       =   2.6175379413911523E-05
(PID.TID 0000.0001) %MON trcstat_ptracer54_sd         =   1.3723205447392173E-04
(PID.TID 0000.0001) %MON trcstat_ptracer54_del2       =   0.0000000000000000E+00
(PID.TID 0000.0001) %MON trcstat_ptracer55_max        =   8.7785894917802938E-04
(PID.TID 0000.0001) %MON trcstat_ptracer55_min        =   5.0000000000000005E-21
(PID.TID 0000.0001) %MON trcstat_ptracer55_mean       =   2.6175379413916991E-05
(PID.TID 0000.0001) %MON trcstat_ptracer55_sd         =   1.3723205447395084E-04
(PID.TID 0000.0001) %MON trcstat_ptracer55_del2       =   0.0000000000000000E+00
(PID.TID 0000.0001) %MON trcstat_ptracer56_max        =   8.7785894917792595E-04
(PID.TID 0000.0001) %MON trcstat_ptracer56_min        =   5.0000000000000005E-21
(PID.TID 0000.0001) %MON trcstat_ptracer56_mean       =   2.6175379413913969E-05
(PID.TID 0000.0001) %MON trcstat_ptracer56_sd         =   1.3723205447393477E-04
(PID.TID 0000.0001) %MON trcstat_ptracer56_del2       =   0.0000000000000000E+00
(PID.TID 0000.0001) %MON trcstat_ptracer57_max        =   8.7784040723700384E-04
(PID.TID 0000.0001) %MON trcstat_ptracer57_min        =   5.0000000000001148E-21
(PID.TID 0000.0001) %MON trcstat_ptracer57_mean       =   2.6175625223659547E-05
(PID.TID 0000.0001) %MON trcstat_ptracer57_sd         =   1.3721449663454664E-04
(PID.TID 0000.0001) %MON trcstat_ptracer57_del2       =   0.0000000000000000E+00
(PID.TID 0000.0001) %MON trcstat_ptracer58_max        =   8.7785894917780810E-04
(PID.TID 0000.0001) %MON trcstat_ptracer58_min        =   5.0000000000000005E-21
(PID.TID 0000.0001) %MON trcstat_ptracer58_mean       =   2.6175773442634187E-05
(PID.TID 0000.0001) %MON trcstat_ptracer58_sd         =   1.3723199893803852E-04
(PID.TID 0000.0001) %MON trcstat_ptracer58_del2       =   0.0000000000000000E+00
(PID.TID 0000.0001) %MON trcstat_ptracer59_max        =   8.7784040716885577E-04
(PID.TID 0000.0001) %MON trcstat_ptracer59_min        =   5.0000000000001148E-21
(PID.TID 0000.0001) %MON trcstat_ptracer59_mean       =   2.6175881438467340E-05
(PID.TID 0000.0001) %MON trcstat_ptracer59_sd         =   1.3721446107200900E-04
(PID.TID 0000.0001) %MON trcstat_ptracer59_del2       =   0.0000000000000000E+00
(PID.TID 0000.0001) %MON trcstat_ptracer60_max        =   8.7785894917802711E-04
(PID.TID 0000.0001) %MON trcstat_ptracer60_min        =   5.0000000000000005E-21
(PID.TID 0000.0001) %MON trcstat_ptracer60_mean       =   2.6184847822506192E-05
(PID.TID 0000.0001) %MON trcstat_ptracer60_sd         =   1.3723926108140172E-04
(PID.TID 0000.0001) %MON trcstat_ptracer60_del2       =   0.0000000000000000E+00
(PID.TID 0000.0001) %MON trcstat_ptracer61_max        =   8.7784040716879224E-04
(PID.TID 0000.0001) %MON trcstat_ptracer61_min        =   5.0000000000001148E-21
(PID.TID 0000.0001) %MON trcstat_ptracer61_mean       =   2.6175379414826552E-05
(PID.TID 0000.0001) %MON trcstat_ptracer61_sd         =   1.3721453422979338E-04
(PID.TID 0000.0001) %MON trcstat_ptracer61_del2       =   0.0000000000000000E+00
(PID.TID 0000.0001) %MON trcstat_ptracer62_max        =   8.8183784782760771E-04
(PID.TID 0000.0001) %MON trcstat_ptracer62_min        =   5.0000000000000005E-21
(PID.TID 0000.0001) %MON trcstat_ptracer62_mean       =   2.6268575099766820E-05
(PID.TID 0000.0001) %MON trcstat_ptracer62_sd         =   1.3779128067508510E-04
(PID.TID 0000.0001) %MON trcstat_ptracer62_del2       =   0.0000000000000000E+00
(PID.TID 0000.0001) %MON trcstat_ptracer63_max        =   8.8763060444353910E-04
(PID.TID 0000.0001) %MON trcstat_ptracer63_min        =   5.0000000000001148E-21
(PID.TID 0000.0001) %MON trcstat_ptracer63_mean       =   2.6455985071415704E-05
(PID.TID 0000.0001) %MON trcstat_ptracer63_sd         =   1.3874167001616585E-04
(PID.TID 0000.0001) %MON trcstat_ptracer63_del2       =   0.0000000000000000E+00
(PID.TID 0000.0001) %MON trcstat_ptracer64_max        =   8.7784040716889535E-04
(PID.TID 0000.0001) %MON trcstat_ptracer64_min        =   5.0000000000001148E-21
(PID.TID 0000.0001) %MON trcstat_ptracer64_mean       =   2.6175379413915659E-05
(PID.TID 0000.0001) %MON trcstat_ptracer64_sd         =   1.3721453422998377E-04
(PID.TID 0000.0001) %MON trcstat_ptracer64_del2       =   0.0000000000000000E+00
(PID.TID 0000.0001) %MON trcstat_ptracer65_max        =   8.7784040716887724E-04
(PID.TID 0000.0001) %MON trcstat_ptracer65_min        =   5.0000000000001148E-21
(PID.TID 0000.0001) %MON trcstat_ptracer65_mean       =   2.6175516059075284E-05
(PID.TID 0000.0001) %MON trcstat_ptracer65_sd         =   1.3721451197096408E-04
(PID.TID 0000.0001) %MON trcstat_ptracer65_del2       =   0.0000000000000000E+00
(PID.TID 0000.0001) %MON trcstat_ptracer66_max        =   8.7784040716884547E-04
(PID.TID 0000.0001) %MON trcstat_ptracer66_min        =   5.0000000000001148E-21
(PID.TID 0000.0001) %MON trcstat_ptracer66_mean       =   2.6175379413914186E-05
(PID.TID 0000.0001) %MON trcstat_ptracer66_sd         =   1.3721453422997604E-04
(PID.TID 0000.0001) %MON trcstat_ptracer66_del2       =   0.0000000000000000E+00
(PID.TID 0000.0001) %MON trcstat_ptracer67_max        =   8.8365849452161328E-04
(PID.TID 0000.0001) %MON trcstat_ptracer67_min        =   5.0000000000000005E-21
(PID.TID 0000.0001) %MON trcstat_ptracer67_mean       =   2.6355025347950339E-05
(PID.TID 0000.0001) %MON trcstat_ptracer67_sd         =   1.3814833247259356E-04
(PID.TID 0000.0001) %MON trcstat_ptracer67_del2       =   0.0000000000000000E+00
(PID.TID 0000.0001) %MON trcstat_ptracer68_max        =   8.7785894917806267E-04
(PID.TID 0000.0001) %MON trcstat_ptracer68_min        =   5.0000000000000005E-21
(PID.TID 0000.0001) %MON trcstat_ptracer68_mean       =   2.6175379413917963E-05
(PID.TID 0000.0001) %MON trcstat_ptracer68_sd         =   1.3723205447395607E-04
(PID.TID 0000.0001) %MON trcstat_ptracer68_del2       =   0.0000000000000000E+00
(PID.TID 0000.0001) %MON trcstat_ptracer69_max        =   8.7784040723699322E-04
(PID.TID 0000.0001) %MON trcstat_ptracer69_min        =   5.0000000000001148E-21
(PID.TID 0000.0001) %MON trcstat_ptracer69_mean       =   2.6175449914064083E-05
(PID.TID 0000.0001) %MON trcstat_ptracer69_sd         =   1.3721452256295461E-04
(PID.TID 0000.0001) %MON trcstat_ptracer69_del2       =   0.0000000000000000E+00
(PID.TID 0000.0001) %MON trcstat_ptracer70_max        =   8.7784040723694042E-04
(PID.TID 0000.0001) %MON trcstat_ptracer70_min        =   5.0000000000001148E-21
(PID.TID 0000.0001) %MON trcstat_ptracer70_mean       =   2.6175958963237414E-05
(PID.TID 0000.0001) %MON trcstat_ptracer70_sd         =   1.3721445155820777E-04
(PID.TID 0000.0001) %MON trcstat_ptracer70_del2       =   0.0000000000000000E+00
(PID.TID 0000.0001) %MON trcstat_ptracer71_max        =   8.7784040716879170E-04
(PID.TID 0000.0001) %MON trcstat_ptracer71_min        =   5.0000000000001148E-21
(PID.TID 0000.0001) %MON trcstat_ptracer71_mean       =   2.6175379413912586E-05
(PID.TID 0000.0001) %MON trcstat_ptracer71_sd         =   1.3721453422996761E-04
(PID.TID 0000.0001) %MON trcstat_ptracer71_del2       =   0.0000000000000000E+00
(PID.TID 0000.0001) %MON trcstat_ptracer72_max        =   8.8786965294603720E-04
(PID.TID 0000.0001) %MON trcstat_ptracer72_min        =   5.0000000000001148E-21
(PID.TID 0000.0001) %MON trcstat_ptracer72_mean       =   2.6474166969308708E-05
(PID.TID 0000.0001) %MON trcstat_ptracer72_sd         =   1.3879706299728078E-04
(PID.TID 0000.0001) %MON trcstat_ptracer72_del2       =   0.0000000000000000E+00
(PID.TID 0000.0001) %MON trcstat_ptracer73_max        =   8.7784040723699452E-04
(PID.TID 0000.0001) %MON trcstat_ptracer73_min        =   5.0000000000001148E-21
(PID.TID 0000.0001) %MON trcstat_ptracer73_mean       =   2.6175379415818512E-05
(PID.TID 0000.0001) %MON trcstat_ptracer73_sd         =   1.3721453424023043E-04
(PID.TID 0000.0001) %MON trcstat_ptracer73_del2       =   0.0000000000000000E+00
(PID.TID 0000.0001) %MON trcstat_ptracer74_max        =   8.8758897101270126E-04
(PID.TID 0000.0001) %MON trcstat_ptracer74_min        =   5.0000000000001148E-21
(PID.TID 0000.0001) %MON trcstat_ptracer74_mean       =   2.6435007288160906E-05
(PID.TID 0000.0001) %MON trcstat_ptracer74_sd         =   1.3868113076877944E-04
(PID.TID 0000.0001) %MON trcstat_ptracer74_del2       =   0.0000000000000000E+00
(PID.TID 0000.0001) %MON trcstat_ptracer75_max        =   8.8155262068507210E-04
(PID.TID 0000.0001) %MON trcstat_ptracer75_min        =   5.0000000000001148E-21
(PID.TID 0000.0001) %MON trcstat_ptracer75_mean       =   2.6308099506953644E-05
(PID.TID 0000.0001) %MON trcstat_ptracer75_sd         =   1.3782719629979283E-04
(PID.TID 0000.0001) %MON trcstat_ptracer75_del2       =   0.0000000000000000E+00
(PID.TID 0000.0001) %MON trcstat_ptracer76_max        =   8.7784040716893600E-04
(PID.TID 0000.0001) %MON trcstat_ptracer76_min        =   5.0000000000001148E-21
(PID.TID 0000.0001) %MON trcstat_ptracer76_mean       =   2.6184176412389154E-05
(PID.TID 0000.0001) %MON trcstat_ptracer76_sd         =   1.3721887204898466E-04
(PID.TID 0000.0001) %MON trcstat_ptracer76_del2       =   0.0000000000000000E+00
(PID.TID 0000.0001) %MON trcstat_ptracer77_max        =   8.7954357267623477E-04
(PID.TID 0000.0001) %MON trcstat_ptracer77_min        =   5.0000000000001148E-21
(PID.TID 0000.0001) %MON trcstat_ptracer77_mean       =   2.6252531351469357E-05
(PID.TID 0000.0001) %MON trcstat_ptracer77_sd         =   1.3753906372910058E-04
(PID.TID 0000.0001) %MON trcstat_ptracer77_del2       =   0.0000000000000000E+00
(PID.TID 0000.0001) %MON trcstat_ptracer78_max        =   8.7784040716886347E-04
(PID.TID 0000.0001) %MON trcstat_ptracer78_min        =   5.0000000000001148E-21
(PID.TID 0000.0001) %MON trcstat_ptracer78_mean       =   2.6175379413914711E-05
(PID.TID 0000.0001) %MON trcstat_ptracer78_sd         =   1.3721453422997881E-04
(PID.TID 0000.0001) %MON trcstat_ptracer78_del2       =   0.0000000000000000E+00
(PID.TID 0000.0001) %MON trcstat_ptracer79_max        =   8.7784040716878194E-04
(PID.TID 0000.0001) %MON trcstat_ptracer79_min        =   5.0000000000001148E-21
(PID.TID 0000.0001) %MON trcstat_ptracer79_mean       =   2.6175529337521375E-05
(PID.TID 0000.0001) %MON trcstat_ptracer79_sd         =   1.3721450986222322E-04
(PID.TID 0000.0001) %MON trcstat_ptracer79_del2       =   0.0000000000000000E+00
(PID.TID 0000.0001) %MON trcstat_ptracer80_max        =   8.8410907282710730E-04
(PID.TID 0000.0001) %MON trcstat_ptracer80_min        =   5.0000000000001148E-21
(PID.TID 0000.0001) %MON trcstat_ptracer80_mean       =   2.6359572580292004E-05
(PID.TID 0000.0001) %MON trcstat_ptracer80_sd         =   1.3815190418777604E-04
(PID.TID 0000.0001) %MON trcstat_ptracer80_del2       =   0.0000000000000000E+00
(PID.TID 0000.0001) %MON trcstat_ptracer81_max        =   8.7785894917779975E-04
(PID.TID 0000.0001) %MON trcstat_ptracer81_min        =   5.0000000000000005E-21
(PID.TID 0000.0001) %MON trcstat_ptracer81_mean       =   2.6175379413910266E-05
(PID.TID 0000.0001) %MON trcstat_ptracer81_sd         =   1.3723205447391509E-04
(PID.TID 0000.0001) %MON trcstat_ptracer81_del2       =   0.0000000000000000E+00
(PID.TID 0000.0001) %MON trcstat_ptracer82_max        =   8.7784040723688718E-04
(PID.TID 0000.0001) %MON trcstat_ptracer82_min        =   5.0000000000001148E-21
(PID.TID 0000.0001) %MON trcstat_ptracer82_mean       =   2.6182974237958743E-05
(PID.TID 0000.0001) %MON trcstat_ptracer82_sd         =   1.3721739480584844E-04
(PID.TID 0000.0001) %MON trcstat_ptracer82_del2       =   0.0000000000000000E+00
(PID.TID 0000.0001) %MON trcstat_ptracer83_max        =   8.7785894917773730E-04
(PID.TID 0000.0001) %MON trcstat_ptracer83_min        =   5.0000000000000005E-21
(PID.TID 0000.0001) %MON trcstat_ptracer83_mean       =   2.6175379413908033E-05
(PID.TID 0000.0001) %MON trcstat_ptracer83_sd         =   1.3723205447390706E-04
(PID.TID 0000.0001) %MON trcstat_ptracer83_del2       =   0.0000000000000000E+00
(PID.TID 0000.0001) %MON trcstat_ptracer84_max        =   8.7784040716884309E-04
(PID.TID 0000.0001) %MON trcstat_ptracer84_min        =   5.0000000000001148E-21
(PID.TID 0000.0001) %MON trcstat_ptracer84_mean       =   2.6175379413914108E-05
(PID.TID 0000.0001) %MON trcstat_ptracer84_sd         =   1.3721453422997564E-04
(PID.TID 0000.0001) %MON trcstat_ptracer84_del2       =   0.0000000000000000E+00
(PID.TID 0000.0001) %MON trcstat_ptracer85_max        =   8.8051058770677001E-04
(PID.TID 0000.0001) %MON trcstat_ptracer85_min        =   5.0000000000001148E-21
(PID.TID 0000.0001) %MON trcstat_ptracer85_mean       =   2.6285250188445654E-05
(PID.TID 0000.0001) %MON trcstat_ptracer85_sd         =   1.3769473680710703E-04
(PID.TID 0000.0001) %MON trcstat_ptracer85_del2       =   0.0000000000000000E+00
(PID.TID 0000.0001) %MON trcstat_ptracer86_max        =   8.8531780370834049E-04
(PID.TID 0000.0001) %MON trcstat_ptracer86_min        =   5.0000000000000005E-21
(PID.TID 0000.0001) %MON trcstat_ptracer86_mean       =   2.6392696711448964E-05
(PID.TID 0000.0001) %MON trcstat_ptracer86_sd         =   1.3840504663571973E-04
(PID.TID 0000.0001) %MON trcstat_ptracer86_del2       =   0.0000000000000000E+00
(PID.TID 0000.0001) %MON trcstat_ptracer87_max        =   8.7785894917779975E-04
(PID.TID 0000.0001) %MON trcstat_ptracer87_min        =   5.0000000000000005E-21
(PID.TID 0000.0001) %MON trcstat_ptracer87_mean       =   2.6175379413910428E-05
(PID.TID 0000.0001) %MON trcstat_ptracer87_sd         =   1.3723205447391850E-04
(PID.TID 0000.0001) %MON trcstat_ptracer87_del2       =   0.0000000000000000E+00
(PID.TID 0000.0001) %MON trcstat_ptracer88_max        =   8.7785894917776137E-04
(PID.TID 0000.0001) %MON trcstat_ptracer88_min        =   5.0000000000000005E-21
(PID.TID 0000.0001) %MON trcstat_ptracer88_mean       =   2.6175384983750871E-05
(PID.TID 0000.0001) %MON trcstat_ptracer88_sd         =   1.3723205390469279E-04
(PID.TID 0000.0001) %MON trcstat_ptracer88_del2       =   0.0000000000000000E+00
(PID.TID 0000.0001) %MON trcstat_ptracer89_max        =   8.7784040723699614E-04
(PID.TID 0000.0001) %MON trcstat_ptracer89_min        =   5.0000000000001148E-21
(PID.TID 0000.0001) %MON trcstat_ptracer89_mean       =   2.6175392895174741E-05
(PID.TID 0000.0001) %MON trcstat_ptracer89_sd         =   1.3721453174000099E-04
(PID.TID 0000.0001) %MON trcstat_ptracer89_del2       =   0.0000000000000000E+00
(PID.TID 0000.0001) %MON trcstat_ptracer90_max        =   8.7785894917778858E-04
(PID.TID 0000.0001) %MON trcstat_ptracer90_min        =   5.0000000000000005E-21
(PID.TID 0000.0001) %MON trcstat_ptracer90_mean       =   2.6175379413909503E-05
(PID.TID 0000.0001) %MON trcstat_ptracer90_sd         =   1.3723205447391528E-04
(PID.TID 0000.0001) %MON trcstat_ptracer90_del2       =   0.0000000000000000E+00
(PID.TID 0000.0001) %MON trcstat_ptracer91_max        =   8.7976339317703248E-04
(PID.TID 0000.0001) %MON trcstat_ptracer91_min        =   5.0000000000001148E-21
(PID.TID 0000.0001) %MON trcstat_ptracer91_mean       =   2.6262659635696004E-05
(PID.TID 0000.0001) %MON trcstat_ptracer91_sd         =   1.3758207126784617E-04
(PID.TID 0000.0001) %MON trcstat_ptracer91_del2       =   0.0000000000000000E+00
(PID.TID 0000.0001) %MON trcstat_ptracer92_max        =   8.7784040723688859E-04
(PID.TID 0000.0001) %MON trcstat_ptracer92_min        =   5.0000000000001148E-21
(PID.TID 0000.0001) %MON trcstat_ptracer92_mean       =   2.6175379415815382E-05
(PID.TID 0000.0001) %MON trcstat_ptracer92_sd         =   1.3721453424021389E-04
(PID.TID 0000.0001) %MON trcstat_ptracer92_del2       =   0.0000000000000000E+00
(PID.TID 0000.0001) %MON trcstat_ptracer93_max        =   8.8724565176827828E-04
(PID.TID 0000.0001) %MON trcstat_ptracer93_min        =   5.0000000000001148E-21
(PID.TID 0000.0001) %MON trcstat_ptracer93_mean       =   2.6451107626381251E-05
(PID.TID 0000.0001) %MON trcstat_ptracer93_sd         =   1.3868184616115989E-04
(PID.TID 0000.0001) %MON trcstat_ptracer93_del2       =   0.0000000000000000E+00
(PID.TID 0000.0001) %MON trcstat_ptracer94_max        =   8.7786197235533011E-04
(PID.TID 0000.0001) %MON trcstat_ptracer94_min        =   5.0000000000001148E-21
(PID.TID 0000.0001) %MON trcstat_ptracer94_mean       =   2.6211190736673597E-05
(PID.TID 0000.0001) %MON trcstat_ptracer94_sd         =   1.3732550639240069E-04
(PID.TID 0000.0001) %MON trcstat_ptracer94_del2       =   0.0000000000000000E+00
(PID.TID 0000.0001) %MON trcstat_ptracer95_max        =   8.8376444791535573E-04
(PID.TID 0000.0001) %MON trcstat_ptracer95_min        =   5.0000000000000005E-21
(PID.TID 0000.0001) %MON trcstat_ptracer95_mean       =   2.6337629582421629E-05
(PID.TID 0000.0001) %MON trcstat_ptracer95_sd         =   1.3815304596367971E-04
(PID.TID 0000.0001) %MON trcstat_ptracer95_del2       =   0.0000000000000000E+00
(PID.TID 0000.0001) %MON trcstat_ptracer96_max        =   1.2415930925341799E-07
(PID.TID 0000.0001) %MON trcstat_ptracer96_min        =   2.7697933074757085E-35
(PID.TID 0000.0001) %MON trcstat_ptracer96_mean       =   1.6419666009736247E-08
(PID.TID 0000.0001) %MON trcstat_ptracer96_sd         =   3.0032591276925901E-08
(PID.TID 0000.0001) %MON trcstat_ptracer96_del2       =   0.0000000000000000E+00
(PID.TID 0000.0001) %MON trcstat_ptracer97_max        =   1.2416000433253270E-07
(PID.TID 0000.0001) %MON trcstat_ptracer97_min        =   2.7697933074757085E-35
(PID.TID 0000.0001) %MON trcstat_ptracer97_mean       =   1.6419685756800952E-08
(PID.TID 0000.0001) %MON trcstat_ptracer97_sd         =   3.0032657492574429E-08
(PID.TID 0000.0001) %MON trcstat_ptracer97_del2       =   0.0000000000000000E+00
(PID.TID 0000.0001) // =======================================================
(PID.TID 0000.0001) // End MONITOR ptracers field statistics
(PID.TID 0000.0001) // =======================================================
 Computing Diagnostic #    140  TRAC01       Counter:       1   Parms: SMR     MR      
 Computing Diagnostic #    152  TRAC02       Counter:       1   Parms: SMR     MR      
 Computing Diagnostic #    164  TRAC03       Counter:       1   Parms: SMR     MR      
 Computing Diagnostic #    176  TRAC04       Counter:       1   Parms: SMR     MR      
 Computing Diagnostic #    188  TRAC05       Counter:       1   Parms: SMR     MR      
 Computing Diagnostic #    200  TRAC06       Counter:       1   Parms: SMR     MR      
 Computing Diagnostic #    212  TRAC07       Counter:       1   Parms: SMR     MR      
 Computing Diagnostic #    224  TRAC08       Counter:       1   Parms: SMR     MR      
 Computing Diagnostic #    236  TRAC09       Counter:       1   Parms: SMR     MR      
 Computing Diagnostic #    248  TRAC10       Counter:       1   Parms: SMR     MR      
 Computing Diagnostic #    260  TRAC11       Counter:       1   Parms: SMR     MR      
 Computing Diagnostic #    272  TRAC12       Counter:       1   Parms: SMR     MR      
 Computing Diagnostic #    284  TRAC13       Counter:       1   Parms: SMR     MR      
 Computing Diagnostic #    296  TRAC14       Counter:       1   Parms: SMR     MR      
 Computing Diagnostic #    308  TRAC15       Counter:       1   Parms: SMR     MR      
 Computing Diagnostic #    320  TRAC16       Counter:       1   Parms: SMR     MR      
 Computing Diagnostic #    332  TRAC17       Counter:       1   Parms: SMR     MR      
 Computing Diagnostic #    344  TRAC18       Counter:       1   Parms: SMR     MR      
 Computing Diagnostic #    356  TRAC19       Counter:       1   Parms: SMR     MR      
 Computing Diagnostic #    368  TRAC20       Counter:       1   Parms: SMR     MR      
 Computing Diagnostic #    380  TRAC21       Counter:       1   Parms: SMR     MR      
 Computing Diagnostic #    392  TRAC22       Counter:       1   Parms: SMR     MR      
 Computing Diagnostic #    404  TRAC23       Counter:       1   Parms: SMR     MR      
 Computing Diagnostic #    416  TRAC24       Counter:       1   Parms: SMR     MR      
 Computing Diagnostic #    428  TRAC25       Counter:       1   Parms: SMR     MR      
 Computing Diagnostic #    440  TRAC26       Counter:       1   Parms: SMR     MR      
 Computing Diagnostic #    452  TRAC27       Counter:       1   Parms: SMR     MR      
 Computing Diagnostic #    464  TRAC28       Counter:       1   Parms: SMR     MR      
 Computing Diagnostic #    476  TRAC29       Counter:       1   Parms: SMR     MR      
 Computing Diagnostic #    488  TRAC30       Counter:       1   Parms: SMR     MR      
 Computing Diagnostic #    500  TRAC31       Counter:       1   Parms: SMR     MR      
 Computing Diagnostic #    512  TRAC32       Counter:       1   Parms: SMR     MR      
 Computing Diagnostic #    524  TRAC33       Counter:       1   Parms: SMR     MR      
 Computing Diagnostic #    536  TRAC34       Counter:       1   Parms: SMR     MR      
 Computing Diagnostic #    548  TRAC35       Counter:       1   Parms: SMR     MR      
 Computing Diagnostic #    560  TRAC36       Counter:       1   Parms: SMR     MR      
 Computing Diagnostic #    572  TRAC37       Counter:       1   Parms: SMR     MR      
 Computing Diagnostic #    584  TRAC38       Counter:       1   Parms: SMR     MR      
 Computing Diagnostic #    596  TRAC39       Counter:       1   Parms: SMR     MR      
 Computing Diagnostic #    608  TRAC40       Counter:       1   Parms: SMR     MR      
 Computing Diagnostic #    620  TRAC41       Counter:       1   Parms: SMR     MR      
 Computing Diagnostic #    632  TRAC42       Counter:       1   Parms: SMR     MR      
 Computing Diagnostic #    644  TRAC43       Counter:       1   Parms: SMR     MR      
 Computing Diagnostic #    656  TRAC44       Counter:       1   Parms: SMR     MR      
 Computing Diagnostic #    668  TRAC45       Counter:       1   Parms: SMR     MR      
 Computing Diagnostic #    680  TRAC46       Counter:       1   Parms: SMR     MR      
 Computing Diagnostic #    692  TRAC47       Counter:       1   Parms: SMR     MR      
 Computing Diagnostic #    704  TRAC48       Counter:       1   Parms: SMR     MR      
 Computing Diagnostic #    716  TRAC49       Counter:       1   Parms: SMR     MR      
 Computing Diagnostic #    728  TRAC50       Counter:       1   Parms: SMR     MR      
 Computing Diagnostic #    740  TRAC51       Counter:       1   Parms: SMR     MR      
 Computing Diagnostic #    752  TRAC52       Counter:       1   Parms: SMR     MR      
 Computing Diagnostic #    764  TRAC53       Counter:       1   Parms: SMR     MR      
 Computing Diagnostic #    776  TRAC54       Counter:       1   Parms: SMR     MR      
 Computing Diagnostic #    788  TRAC55       Counter:       1   Parms: SMR     MR      
 Computing Diagnostic #    800  TRAC56       Counter:       1   Parms: SMR     MR      
 Computing Diagnostic #    812  TRAC57       Counter:       1   Parms: SMR     MR      
 Computing Diagnostic #    824  TRAC58       Counter:       1   Parms: SMR     MR      
 Computing Diagnostic #    836  TRAC59       Counter:       1   Parms: SMR     MR      
 Computing Diagnostic #    848  TRAC60       Counter:       1   Parms: SMR     MR      
 Computing Diagnostic #    860  TRAC61       Counter:       1   Parms: SMR     MR      
 Computing Diagnostic #    872  TRAC62       Counter:       1   Parms: SMR     MR      
 Computing Diagnostic #    884  TRAC63       Counter:       1   Parms: SMR     MR      
 Computing Diagnostic #    896  TRAC64       Counter:       1   Parms: SMR     MR      
 Computing Diagnostic #    908  TRAC65       Counter:       1   Parms: SMR     MR      
 Computing Diagnostic #    920  TRAC66       Counter:       1   Parms: SMR     MR      
 Computing Diagnostic #    932  TRAC67       Counter:       1   Parms: SMR     MR      
 Computing Diagnostic #    944  TRAC68       Counter:       1   Parms: SMR     MR      
 Computing Diagnostic #    956  TRAC69       Counter:       1   Parms: SMR     MR      
 Computing Diagnostic #    968  TRAC70       Counter:       1   Parms: SMR     MR      
 Computing Diagnostic #    980  TRAC71       Counter:       1   Parms: SMR     MR      
 Computing Diagnostic #    992  TRAC72       Counter:       1   Parms: SMR     MR      
 Computing Diagnostic #   1004  TRAC73       Counter:       1   Parms: SMR     MR      
 Computing Diagnostic #   1016  TRAC74       Counter:       1   Parms: SMR     MR      
 Computing Diagnostic #   1028  TRAC75       Counter:       1   Parms: SMR     MR      
 Computing Diagnostic #   1040  TRAC76       Counter:       1   Parms: SMR     MR      
 Computing Diagnostic #   1052  TRAC77       Counter:       1   Parms: SMR     MR      
 Computing Diagnostic #   1064  TRAC78       Counter:       1   Parms: SMR     MR      
 Computing Diagnostic #   1076  TRAC79       Counter:       1   Parms: SMR     MR      
 Computing Diagnostic #   1088  TRAC80       Counter:       1   Parms: SMR     MR      
 Computing Diagnostic #   1100  TRAC81       Counter:       1   Parms: SMR     MR      
 Computing Diagnostic #   1112  TRAC82       Counter:       1   Parms: SMR     MR      
 Computing Diagnostic #   1124  TRAC83       Counter:       1   Parms: SMR     MR      
 Computing Diagnostic #   1136  TRAC84       Counter:       1   Parms: SMR     MR      
 Computing Diagnostic #   1148  TRAC85       Counter:       1   Parms: SMR     MR      
 Computing Diagnostic #   1160  TRAC86       Counter:       1   Parms: SMR     MR      
 Computing Diagnostic #   1172  TRAC87       Counter:       1   Parms: SMR     MR      
 Computing Diagnostic #   1184  TRAC88       Counter:       1   Parms: SMR     MR      
 Computing Diagnostic #   1196  TRAC89       Counter:       1   Parms: SMR     MR      
 Computing Diagnostic #   1208  TRAC90       Counter:       1   Parms: SMR     MR      
 Computing Diagnostic #   1220  TRAC91       Counter:       1   Parms: SMR     MR      
 Computing Diagnostic #   1232  TRAC92       Counter:       1   Parms: SMR     MR      
 Computing Diagnostic #   1244  TRAC93       Counter:       1   Parms: SMR     MR      
 Computing Diagnostic #   1256  TRAC94       Counter:       1   Parms: SMR     MR      
 Computing Diagnostic #   1268  TRAC95       Counter:       1   Parms: SMR     MR      
 Computing Diagnostic #   1280  TRAC96       Counter:       1   Parms: SMR     MR      
 Computing Diagnostic #   1292  TRAC97       Counter:       1   Parms: SMR     MR      
 Computing Diagnostic #   1309  PAR01        Counter:       1   Parms: SM P    MR      
 Computing Diagnostic #   1306  exfPAR       Counter:       1   Parms: SM P    MR      
(PID.TID 0000.0001) // =======================================================
(PID.TID 0000.0001) // Begin MONITOR EXF statistics
(PID.TID 0000.0001) // =======================================================
(PID.TID 0000.0001) %MON exf_tsnumber                 =                     1
(PID.TID 0000.0001) %MON exf_time_sec                 =   3.6000000000000000E+03
(PID.TID 0000.0001) %MON exf_ustress_max              =   0.0000000000000000E+00
(PID.TID 0000.0001) %MON exf_ustress_min              =   0.0000000000000000E+00
(PID.TID 0000.0001) %MON exf_ustress_mean             =   0.0000000000000000E+00
(PID.TID 0000.0001) %MON exf_ustress_sd               =   0.0000000000000000E+00
(PID.TID 0000.0001) %MON exf_ustress_del2             =   0.0000000000000000E+00
(PID.TID 0000.0001) %MON exf_vstress_max              =   0.0000000000000000E+00
(PID.TID 0000.0001) %MON exf_vstress_min              =   0.0000000000000000E+00
(PID.TID 0000.0001) %MON exf_vstress_mean             =   0.0000000000000000E+00
(PID.TID 0000.0001) %MON exf_vstress_sd               =   0.0000000000000000E+00
(PID.TID 0000.0001) %MON exf_vstress_del2             =   0.0000000000000000E+00
(PID.TID 0000.0001) %MON exf_hflux_max                =   0.0000000000000000E+00
(PID.TID 0000.0001) %MON exf_hflux_min                =   0.0000000000000000E+00
(PID.TID 0000.0001) %MON exf_hflux_mean               =   0.0000000000000000E+00
(PID.TID 0000.0001) %MON exf_hflux_sd                 =   0.0000000000000000E+00
(PID.TID 0000.0001) %MON exf_hflux_del2               =   0.0000000000000000E+00
(PID.TID 0000.0001) %MON exf_sflux_max                =   0.0000000000000000E+00
(PID.TID 0000.0001) %MON exf_sflux_min                =   0.0000000000000000E+00
(PID.TID 0000.0001) %MON exf_sflux_mean               =   0.0000000000000000E+00
(PID.TID 0000.0001) %MON exf_sflux_sd                 =   0.0000000000000000E+00
(PID.TID 0000.0001) %MON exf_sflux_del2               =   0.0000000000000000E+00
(PID.TID 0000.0001) %MON exf_uwind_max                =   0.0000000000000000E+00
(PID.TID 0000.0001) %MON exf_uwind_min                =   0.0000000000000000E+00
(PID.TID 0000.0001) %MON exf_uwind_mean               =   0.0000000000000000E+00
(PID.TID 0000.0001) %MON exf_uwind_sd                 =   0.0000000000000000E+00
(PID.TID 0000.0001) %MON exf_uwind_del2               =   0.0000000000000000E+00
(PID.TID 0000.0001) %MON exf_vwind_max                =   0.0000000000000000E+00
(PID.TID 0000.0001) %MON exf_vwind_min                =   0.0000000000000000E+00
(PID.TID 0000.0001) %MON exf_vwind_mean               =   0.0000000000000000E+00
(PID.TID 0000.0001) %MON exf_vwind_sd                 =   0.0000000000000000E+00
(PID.TID 0000.0001) %MON exf_vwind_del2               =   0.0000000000000000E+00
(PID.TID 0000.0001) %MON exf_wspeed_max               =   0.0000000000000000E+00
(PID.TID 0000.0001) %MON exf_wspeed_min               =   0.0000000000000000E+00
(PID.TID 0000.0001) %MON exf_wspeed_mean              =   0.0000000000000000E+00
(PID.TID 0000.0001) %MON exf_wspeed_sd                =   0.0000000000000000E+00
(PID.TID 0000.0001) %MON exf_wspeed_del2              =   0.0000000000000000E+00
(PID.TID 0000.0001) %MON exf_evap_max                 =   0.0000000000000000E+00
(PID.TID 0000.0001) %MON exf_evap_min                 =   0.0000000000000000E+00
(PID.TID 0000.0001) %MON exf_evap_mean                =   0.0000000000000000E+00
(PID.TID 0000.0001) %MON exf_evap_sd                  =   0.0000000000000000E+00
(PID.TID 0000.0001) %MON exf_evap_del2                =   0.0000000000000000E+00
(PID.TID 0000.0001) // =======================================================
(PID.TID 0000.0001) // End MONITOR EXF statistics
(PID.TID 0000.0001) // =======================================================
 Local pointing vectors
 no(2) =   0.27363063147685535      -0.12470066308196398       0.95371695074822704     
 ea(2) =   0.41469324265623930       0.90996127087654310        0.0000000000000000     
 up(2) =   0.86784548855935806      -0.39549997488200311      -0.30070579950427312     
 ac           1   3.1713984512132374E-005   3.0400000000000000E-002
 ac           2   2.7620712336045232E-005   3.8500000000000000E-002
 ac           3   3.2090385470741914E-005   3.0400000000000000E-002
 ac           4   3.2136332126036273E-005   3.0400000000000000E-002
 ac           5   2.1756638465953971E-005   2.9200000000000000E-002
 ac           6   2.6453594198362740E-005   3.8500000000000000E-002
 ac           7   3.6441780240261396E-005   2.4500000000000001E-002
 ac           8   4.0592816199478711E-005   2.4500000000000001E-002
 ac           9   2.0989263244362444E-005   2.9200000000000000E-002
 ac          10   2.1482900987385541E-005   2.9200000000000000E-002
 ac          11   1.8464918775293068E-005   3.0400000000000000E-002
 ac          12   3.8325922161405244E-005   2.4500000000000001E-002
 ac          13   3.2101897803839400E-005   3.0400000000000000E-002
 ac          14   3.9650745174219742E-005   2.4500000000000001E-002
 ac          15   1.7731865158082883E-005   3.0400000000000000E-002
 ac          16   3.2006805876413837E-005   3.0400000000000000E-002
 ac          17   3.1768859121575867E-005   3.0400000000000000E-002
 ac          18   2.1743077749151642E-005   2.9200000000000000E-002
 ac          19   3.1792524393904740E-005   3.0400000000000000E-002
 ac          20   3.1327464731142532E-005   3.0400000000000000E-002
 ac          21   3.2019525512157505E-005   3.0400000000000000E-002
 ac          22   3.1829023686500017E-005   3.0400000000000000E-002
 ac          23   2.7321407739910247E-005   3.8500000000000000E-002
 ac          24   3.1604818478032654E-005   3.0400000000000000E-002
 ac          25   3.8440785784207821E-005   2.4500000000000001E-002
 ac          26   4.0580850512792045E-005   2.4500000000000001E-002
 ac          27   3.8361625879574859E-005   2.4500000000000001E-002
 ac          28   2.6409756957702202E-005   3.8500000000000000E-002
 ac          29   3.1938917103848374E-005   3.0400000000000000E-002
 ac          30   2.1477011971335101E-005   2.9200000000000000E-002
 ac          31   3.1798227094527797E-005   3.0400000000000000E-002
 ac          32   1.7680099248294221E-005   3.0400000000000000E-002
 ac          33   3.1698342139815672E-005   3.0400000000000000E-002
 ac          34   2.1451804982651793E-005   2.9200000000000000E-002
 ac          35   2.1781914758912509E-005   2.9200000000000000E-002
 ac          36   3.1961914149827817E-005   3.0400000000000000E-002
 ac          37   1.8069822594244663E-005   3.0400000000000000E-002
 ac          38   1.8230282919705983E-005   3.0400000000000000E-002
 ac          39   2.1722431659308663E-005   2.9200000000000000E-002
 ac          40   3.1891722092872296E-005   3.0400000000000000E-002
 ac          41   2.1648222216271520E-005   2.9200000000000000E-002
 ac          42   3.2113895999106475E-005   3.0400000000000000E-002
 ac          43   1.7927163641906093E-005   3.0400000000000000E-002
 ac          44   3.1763864712531729E-005   3.0400000000000000E-002
 ac          45   3.9387065170569259E-005   2.4500000000000001E-002
 ac          46   3.1380395781889325E-005   3.0400000000000000E-002
 ac          47   3.1749844523935630E-005   3.0400000000000000E-002
 ac          48   3.2006609769249320E-005   3.0400000000000000E-002
 ac          49   3.1439457657665469E-005   3.0400000000000000E-002
 ac          50   1.8221632246853949E-005   3.0400000000000000E-002
 ac          51   1.7517494361130715E-005   3.0400000000000000E-002
 ac          52   3.1802344246205568E-005   3.0400000000000000E-002
 ac          53   3.2093422336204365E-005   3.0400000000000000E-002
 ac          54   3.1379750877137085E-005   3.0400000000000000E-002
 ac          55   3.1612292928357347E-005   3.0400000000000000E-002
 ac          56   3.1739359546905726E-005   3.0400000000000000E-002
 ac          57   3.1925716350623151E-005   3.0400000000000000E-002
 ac          58   3.1957652820599444E-005   3.0400000000000000E-002
 ac          59   3.1456981420604952E-005   3.0400000000000000E-002
 ac          60   3.1824288798422662E-005   3.0400000000000000E-002
 ac          61   3.1991514372874703E-005   3.0400000000000000E-002
 ac          62   3.2119064226955048E-005   3.0400000000000000E-002
 ac          63   3.2034017756156454E-005   3.0400000000000000E-002
 ac          64   2.1755353852799114E-005   2.9200000000000000E-002
 ac          65   3.2116943679969585E-005   3.0400000000000000E-002
 ac          66   2.6943923798573268E-005   3.8500000000000000E-002
 ac          67   3.2103395721844508E-005   3.0400000000000000E-002
 ac          68   3.2033853803426549E-005   3.0400000000000000E-002
 ac          69   1.8390247268078881E-005   3.0400000000000000E-002
 ac          70   2.7635733481627112E-005   3.8500000000000000E-002
 ac          71   3.6794370568316545E-005   2.4500000000000001E-002
 ac          72   3.1775224058585589E-005   3.0400000000000000E-002
 ac          73   2.6954193939073331E-005   3.8500000000000000E-002
 ac          74   3.1831963931572685E-005   3.0400000000000000E-002
 ac          75   3.2009671923270534E-005   3.0400000000000000E-002
 ac          76   3.1528089326502298E-005   3.0400000000000000E-002
 ac          77   3.1426918170406791E-005   3.0400000000000000E-002
 ac          78   4.0208166988340038E-005   2.4500000000000001E-002
 abs           1           1   9.7539134847581012E-003   7.8897424373613120E-003   3.8010792908501536E-003   6.3000000000000000E-003   3.3819567010949418E-003   6.8689963247285882E-005   3.2668204158737291E-006
 abs           1           2   7.5759224595435704E-003   6.0726750335613833E-003   2.9010107941460327E-003   5.1000000000000004E-003   2.3832246072059966E-003   9.0060909060707043E-005   2.6369432768653953E-006
 abs           1           3   1.0078672448143302E-002   4.7645266070869621E-003   2.2509736770457301E-003   8.3000000000000001E-003   1.6794299958226247E-003   9.7149979113123465E-005   2.0924732075531076E-006
 abs           1           4   1.3164032014483027E-002   3.8675381948594704E-003   1.8009884017022720E-003   1.1900000000000001E-002   1.1834743155725521E-003   7.8849557516552554E-005   1.7081413939209043E-006
 abs           1           5   2.2392329935786055E-002   3.1710134562405478E-003   1.4509942483846678E-003   2.1499999999999998E-002   8.3398025467198360E-004   5.6972492115226637E-005   1.3771889988487289E-006
 abs           1           6   4.1322936784371232E-002   2.5715335872211857E-003   1.1509768898346588E-003   4.0700000000000000E-002   5.8769595252792628E-004   3.4130539937258410E-005   1.1102919060485878E-006
 abs           1           7   5.5437464596979534E-002   2.1771284613310887E-003   9.5097692010433893E-004   5.5000000000000000E-002   4.1414233812232402E-004   2.2418011506806515E-005   9.0424735040687861E-007
 abs           1           8   8.5206538714102581E-002   1.8752459103708052E-003   8.0095700561269199E-004   8.4900000000000003E-002   2.9184117312306210E-004   1.3958769826659482E-005   7.3877115287079104E-007
 abs           1           9  0.19971913179956480        1.6710381592008627E-003   7.0093574575291913E-004  0.19950000000000001        2.0565699878935897E-004   1.2880154052679191E-005   5.9464672275871469E-007
 abs           1          10  0.28515958969052974        1.4649967177884919E-003   6.0090979197434315E-004  0.28499999999999998        1.4492403761415712E-004   1.4186305736884214E-005   4.7934717866905380E-007
 abs           1          11  0.35131760123653372        1.1583335264726889E-003   4.5087827827115242E-004  0.35120000000000001        1.0212624322064334E-004   1.5086391145921375E-005   3.8860216711700564E-007
 abs           1          12  0.45601555032293323        9.5519127527948994E-004   3.5086978985871442E-004  0.45590000000000003        7.1967147245303892E-005   4.3265034353313793E-005   3.1814133461776838E-007
 abs           1          13  0.64335670445389503        9.4581068640969769E-004   3.5083803055825169E-004  0.64329999999999998        5.0714391514798557E-005   5.7327735827759267E-006   2.5728879745933615E-007
 abs           2           1   9.7563079064675630E-003   7.9069929741968064E-003   3.8011636841451418E-003   6.3000000000000000E-003   3.3825375035496448E-003   6.9721933052672064E-005   4.0484698652468666E-006
 abs           2           2   7.5783200618843912E-003   6.0888860620912349E-003   2.9010900775381463E-003   5.1000000000000004E-003   2.3836338917783053E-003   9.1418287567798212E-005   3.2678825382875029E-006
 abs           2           3   1.0080903620276964E-002   4.7792578747160976E-003   2.2510451460975461E-003   8.3000000000000001E-003   1.6797184137860362E-003   9.8592068930180310E-005   2.5931375607463589E-006
 abs           2           4   1.3165815702240969E-002   3.8825388990514345E-003   1.8010613335812584E-003   1.1900000000000001E-002   1.1836775602762292E-003   8.0021294976373661E-005   2.1168469883643745E-006
 abs           2           5   2.2393680070260259E-002   3.1855683598954513E-003   1.4510646162370373E-003   2.1499999999999998E-002   8.3412347879396323E-004   5.7849883581929555E-005   1.7067078843687771E-006
 abs           2           6   4.1323851795761292E-002   2.5855228348023889E-003   1.1510440194894703E-003   4.0700000000000000E-002   5.8779688086084577E-004   3.4678964358015327E-005   1.3759505424368435E-006
 abs           2           7   5.5438156062568605E-002   2.1907349719992976E-003   9.5104162494987507E-004   5.5000000000000000E-002   4.1421346111644752E-004   2.2821995577698888E-005   1.1206058744653909E-006
 abs           2           8   8.5206998390096239E-002   1.8884351929968728E-003   8.0101944268117192E-004   8.4900000000000003E-002   2.9189129264992606E-004   1.4191561123853989E-005   9.1553632246759205E-007
 abs           2           9  0.19971950518619269        1.6837746824532897E-003   7.0099588328576511E-004  0.19950000000000001        2.0569231742300235E-004   1.3075941411846901E-005   7.3692735782434783E-007
 abs           2          10  0.28515994614270679        1.4773099325185251E-003   6.0096779385112459E-004  0.28499999999999998        1.4494892623463074E-004   1.4403176286095719E-005   5.9404018610975263E-007
 abs           2          11  0.35131794045287740        1.1700983004776131E-003   4.5093342984493085E-004  0.35120000000000001        1.0214378193506063E-004   1.5315088252480402E-005   4.8158268985289522E-007
 abs           2          12  0.45601628306858516        9.6666737357314078E-004   3.5092361208606602E-004  0.45590000000000003        7.1979506568462738E-005   4.3909299265144020E-005   3.9426275158286472E-007
 abs           2          13  0.64335686268733405        9.5689142621870917E-004   3.5089008541772554E-004  0.64329999999999998        5.0723100982625577E-005   5.8207362737108104E-006   3.1885007762238392E-007
 abs           3           1   9.7585677881445905E-003   7.9199997984583607E-003   3.8012152681698615E-003   6.3000000000000000E-003   3.3832311308165100E-003   7.1019662605048119E-005   4.3169947230313918E-006
 abs           3           2   7.5807465512875497E-003   6.1009854464960950E-003   2.9011381276390254E-003   5.1000000000000004E-003   2.3841226826519695E-003   9.3139235640192340E-005   3.4846329953880838E-006
 abs           3           3   1.0083142287233306E-002   4.7905906114991030E-003   2.2510896917546930E-003   8.3000000000000001E-003   1.6800628588930706E-003   1.0031429446535226E-004   2.7651338748828526E-006
 abs           3           4   1.3167610275951652E-002   3.8939054926203924E-003   1.8011062013019979E-003   1.1900000000000001E-002   1.1839202866407181E-003   8.1432737168171370E-005   2.2572521427615121E-006
 abs           3           5   2.2395166442255900E-002   3.1967533089291423E-003   1.4511085022655974E-003   2.1499999999999998E-002   8.3429452517207929E-004   5.9052007543720195E-005   1.8199095401014693E-006
 abs           3           6   4.1324923151744845E-002   2.5962994603117217E-003   1.1510860472006652E-003   4.0700000000000000E-002   5.8791741520629369E-004   3.5538522645756979E-005   1.4672138927949829E-006
 abs           3           7   5.5439138458318556E-002   2.2012913038822390E-003   9.5108247120027835E-004   5.5000000000000000E-002   4.1429840023408671E-004   2.3645125231392762E-005   1.1949328530743755E-006
 abs           3           8   8.5207520261182529E-002   1.8985486021884186E-003   8.0105850566377745E-004   8.4900000000000003E-002   2.9195114823447763E-004   1.4592851396314281E-005   9.7626155174435397E-007
 abs           3           9  0.19971985389819741        1.6933946195536035E-003   7.0103305566853445E-004  0.19950000000000001        2.0573449694053896E-004   1.3333595354670690E-005   7.8580590219885134E-007
 abs           3          10  0.28516030584208291        1.4866028372803913E-003   6.0100364061561982E-004  0.28499999999999998        1.4497864963826889E-004   1.4693751062113813E-005   6.3344138256244938E-007
 abs           3          11  0.35131828976023205        1.1790427452654038E-003   4.5096776552599403E-004  0.35120000000000001        1.0216472766359033E-004   1.5611507705938733E-005   5.1352486247824392E-007
 abs           3          12  0.45601710807910129        9.7520175704981572E-004   3.5095650804656871E-004  0.45590000000000003        7.1994266773888098E-005   4.4693399115771323E-005   4.2041321158933158E-007
 abs           3          13  0.64335701241549192        9.6495623001075599E-004   3.5092131332616685E-004  0.64329999999999998        5.0733502323590632E-005   5.9389145643431973E-006   3.3999860400345276E-007
 abs           4           1   9.7611888187515115E-003   7.9348632009396940E-003   3.8012757629966609E-003   6.3000000000000000E-003   3.3840243195906493E-003   7.2498521379151234E-005   4.6659777817116369E-006
 abs           4           2   7.5835372832288280E-003   6.1148396322162710E-003   2.9011945774356659E-003   5.1000000000000004E-003   2.3846816333340038E-003   9.5089321423965064E-005   3.7663284708587389E-006
 abs           4           3   1.0085729134195882E-002   4.8035340851666350E-003   2.2511418601704647E-003   8.3000000000000001E-003   1.6804567447814404E-003   1.0228372390720074E-004   2.9886655072401332E-006
 abs           4           4   1.3169689418159013E-002   3.9069161985577552E-003   1.8011588612627219E-003   1.1900000000000001E-002   1.1841978533349608E-003   8.3051837879363427E-005   2.4397269446858231E-006
 abs           4           5   2.2396856207339007E-002   3.2095498548214770E-003   1.4511599568121020E-003   2.1499999999999998E-002   8.3449012311561461E-004   6.0399054374239055E-005   1.9670298491529451E-006
 abs           4           6   4.1326127337024884E-002   2.6086547278828479E-003   1.1511353796505581E-003   4.0700000000000000E-002   5.8805525074747647E-004   3.6486263763360887E-005   1.5858225140457849E-006
 abs           4           7   5.5440204944517679E-002   2.2134147828989552E-003   9.5113044951441452E-004   5.5000000000000000E-002   4.1439553129829818E-004   2.4517882768037867E-005   1.2915304513430577E-006
 abs           4           8   8.5208102830750185E-002   1.9102076177245700E-003   8.0110452747546410E-004   8.4900000000000003E-002   2.9201959533856916E-004   1.5028053508036697E-005   1.0551819035766185E-006
 abs           4           9  0.19972025786131334        1.7045288476643064E-003   7.0107699560303667E-004  0.19950000000000001        2.0578273079956800E-004   1.3625800571124744E-005   8.4932994261875211E-007
 abs           4          10  0.28516071886717270        1.4973687591798230E-003   6.0104604099750492E-004  0.28499999999999998        1.4501263946424780E-004   1.5021579334634343E-005   6.8464837385245915E-007
 abs           4          11  0.35131869020428896        1.1894060462529880E-003   4.5100836582517829E-004  0.35120000000000001        1.0218867988912929E-004   1.5946486519862469E-005   5.5503787991602469E-007
 abs           4          12  0.45601805891300684        9.8513551088677087E-004   3.5099556633157327E-004  0.45590000000000003        7.2011145621947659E-005   4.5593368241454367E-005   4.5439914344773453E-007
 abs           4          13  0.64335718355512606        9.7438032016346513E-004   3.5095852551825631E-004  0.64329999999999998        5.0745396646786376E-005   6.0706746083632674E-006   3.6748387104330209E-007
 abs           5           1   9.7641622286131508E-003   7.9508147780937531E-003   3.8013415346503979E-003   6.3000000000000000E-003   3.3849412425299677E-003   7.4168804467774621E-005   5.0521816154092825E-006
 abs           5           2   7.5867172961900046E-003   6.1297139493948086E-003   2.9012559513721188E-003   5.1000000000000004E-003   2.3853277780085313E-003   9.7311450014786168E-005   4.0780681666865777E-006
 abs           5           3   1.0088708489324342E-002   4.8174371808701226E-003   2.2511986247798019E-003   8.3000000000000001E-003   1.6809120752378150E-003   1.0456037618907447E-004   3.2360378974516974E-006
 abs           5           4   1.3172044138608771E-002   3.9209112331410854E-003   1.8012162446832752E-003   1.1900000000000001E-002   1.1845187192844541E-003   8.4883755734559886E-005   2.6416635897564881E-006
 abs           5           5   2.2398744713336083E-002   3.2233223827188942E-003   1.4512160594076921E-003   2.1499999999999998E-002   8.3471623352861886E-004   6.1898638538222144E-005   2.1298412692411685E-006
 abs           5           6   4.1327436213341166E-002   2.6219503834445683E-003   1.1511891062195515E-003   4.0700000000000000E-002   5.8821458806248195E-004   3.7504543945341384E-005   1.7170813333417170E-006
 abs           5           7   5.5441333649966694E-002   2.2264569402212441E-003   9.5118262911438652E-004   5.5000000000000000E-002   4.1450781440643031E-004   2.5427404897437870E-005   1.3984306628273408E-006
 abs           5           8   8.5208733242472176E-002   1.9227591200961323E-003   8.0115456579472194E-004   8.4900000000000003E-002   2.9209871990754647E-004   1.5492003062059629E-005   1.1425195025696810E-006
 abs           5           9  0.19972070797298960        1.7165350740848072E-003   7.0112482189560140E-004  0.19950000000000001        2.0583848894093043E-004   1.3949854911494099E-005   9.1962913718397723E-007
 abs           5          10  0.28516118053368611        1.5089778882557492E-003   6.0109217423011559E-004  0.28499999999999998        1.4505193156237077E-004   1.5387285278877751E-005   7.4131684487541438E-007
 abs           5          11  0.35131913941203236        1.2005723668079354E-003   4.5105247972800023E-004  0.35120000000000001        1.0221636856269661E-004   1.6322065002958488E-005   6.0097846666960090E-007
 abs           5          12  0.45601914572040370        9.9587354583389044E-004   3.5103814491805501E-004  0.45590000000000003        7.2030657500430660E-005   4.6623053059647683E-005   4.9200984359214584E-007
 abs           5          13  0.64335737934134274        9.8458664809234864E-004   3.5099915924160179E-004  0.64329999999999998        5.0759146435161387E-005   6.2222943294235696E-006   3.9790057820707093E-007
 abs           6           1   9.7653527824545228E-003   7.9655688423668665E-003   3.8014110936938918E-003   6.3000000000000000E-003   3.3851172875085781E-003   7.4564952918239487E-005   5.6705420277045081E-006
 abs           6           2   7.5878511779631768E-003   6.1435044921884239E-003   2.9013211282476483E-003   5.1000000000000004E-003   2.3854518348082128E-003   9.7822140929987623E-005   4.5772022249771681E-006
 abs           6           3   1.0089629091409022E-002   4.8299248131404961E-003   2.2512571671376518E-003   8.3000000000000001E-003   1.6809994965869995E-003   1.0499748293499715E-004   3.6321118870264172E-006
 abs           6           4   1.3172799951781677E-002   3.9335445390378948E-003   1.8012756840347982E-003   1.1900000000000001E-002   1.1845803240680115E-003   8.5254638418132399E-005   2.9649892955317692E-006
 abs           6           5   2.2399459640236929E-002   3.2355082539369546E-003   1.4512731637544322E-003   2.1499999999999998E-002   8.3475964568586146E-004   6.2309471931550251E-005   2.3905226195224887E-006
 abs           6           6   4.1328042657919048E-002   2.6335353966759380E-003   1.1512433468823860E-003   4.0700000000000000E-002   5.8824518009263985E-004   3.7870234784318982E-005   1.9272430420956499E-006
 abs           6           7   5.5441954727973759E-002   2.2375991300340702E-003   9.5123468319335282E-004   5.5000000000000000E-002   4.1452937224572287E-004   2.5855764519710891E-005   1.5695912083221303E-006
 abs           6           8   8.5209072561560587E-002   1.9334049998365353E-003   8.0120444026298917E-004   8.4900000000000003E-002   2.9211391146013598E-004   1.5676292230116472E-005   1.2823578703174900E-006
 abs           6           9  0.19972091844056294        1.7266561165870870E-003   7.0117240611467294E-004  0.19950000000000001        2.0584919424710462E-004   1.4037059417322877E-005   1.0321868985069970E-006
 abs           6          10  0.28516137956271764        1.5187204296668894E-003   6.0113798530104763E-004  0.28499999999999998        1.4505947546412850E-004   1.5488037132479506E-005   8.3205012105860267E-007
 abs           6          11  0.35131930739936473        1.2098555104157868E-003   4.5109604527253470E-004  0.35120000000000001        1.0222168466041529E-004   1.6411179639557565E-005   6.7453506473347737E-007
 abs           6          12  0.45601944764341806        1.0047612238228629E-003   3.5108007173514347E-004  0.45590000000000003        7.2034403691176795E-005   4.6861010470594922E-005   5.5222925629279188E-007
 abs           6          13  0.64335746817968209        9.9306963007342818E-004   3.5103939677673390E-004  0.64329999999999998        5.0761786331161999E-005   6.2597918383228127E-006   4.4660151263947268E-007
 abs           7           1   9.7676163192403735E-003   7.9828053344503849E-003   3.8014888072787413E-003   6.3000000000000000E-003   3.3856662854808177E-003   7.5650913294700374E-005   6.2991204648539584E-006
 abs           7           2   7.5901247851961331E-003   6.1596499978324509E-003   2.9013940101537176E-003   5.1000000000000004E-003   2.3858387071405297E-003   9.9201493889528641E-005   5.0845841660749259E-006
 abs           7           3   1.0091667456226213E-002   4.8447270524811636E-003   2.2513232532207039E-003   8.3000000000000001E-003   1.6812721209118248E-003   1.0636060455912228E-004   4.0347307552659340E-006
 abs           7           4   1.3174497977896620E-002   3.9485120497937641E-003   1.8013427457038629E-003   1.1900000000000001E-002   1.1847724391826834E-003   8.6431880954534757E-005   3.2936577594007627E-006
 abs           7           5   2.2400840858410449E-002   3.2500875627595872E-003   1.4513380492760419E-003   2.1499999999999998E-002   8.3489502691902571E-004   6.3290319922907121E-005   2.6555115685168649E-006
 abs           7           6   4.1329080354275904E-002   2.6475859178078419E-003   1.1513054989100958E-003   4.0700000000000000E-002   5.8834058163522210E-004   3.8598895097071691E-005   2.1408775436104957E-006
 abs           7           7   5.5442855267568293E-002   2.2513276299375908E-003   9.5129493186244766E-004   5.5000000000000000E-002   4.1459660057652139E-004   2.6515086915391323E-005   1.7435800763827787E-006
 abs           7           8   8.5209590612889088E-002   1.9466689869047874E-003   8.0126253843740519E-004   8.4900000000000003E-002   2.9216128646414140E-004   1.6004819443992697E-005   1.4245069809408298E-006
 abs           7           9  0.19972128794957644        1.7393848260780140E-003   7.0122814398853174E-004  0.19950000000000001        2.0588257884817759E-004   1.4258766120758743E-005   1.1466046074913903E-006
 abs           7          10  0.28516173937553996        1.5310303860590303E-003   6.0119179851873079E-004  0.28499999999999998        1.4508300119488464E-004   1.5732091636359766E-005   9.2428270873183895E-007
 abs           7          11  0.35131963998899868        1.2216691969470686E-003   4.5114745682311145E-004  0.35120000000000001        1.0223826296268108E-004   1.6652418895719594E-005   7.4930714026367334E-007
 abs           7          12  0.45602018317676596        1.0161521993408507E-003   3.5112976650752118E-004  0.45590000000000003        7.2046086223331244E-005   4.7523646784873664E-005   6.1344375768839198E-007
 abs           7          13  0.64335761400017266        1.0039687058232272E-003   3.5108712836909030E-004  0.64329999999999998        5.0770018872429000E-005   6.3478741002753809E-006   4.9610720000973979E-007
 abs           8           1   9.7616227442629475E-003   7.9814106085631213E-003   3.8015048510813203E-003   6.3000000000000000E-003   3.3832592220598280E-003   7.1453474599916287E-005   6.9100476032026762E-006
 abs           8           2   7.5834568941374600E-003   6.1582291899777023E-003   2.9014090869031940E-003   5.1000000000000004E-003   2.3841424782165607E-003   9.3736697757529298E-005   5.5777181633694799E-006
 abs           8           3   1.0084886895112839E-002   4.8421816843993784E-003   2.2513321788189288E-003   8.3000000000000001E-003   1.6800768085916675E-003   1.0038404295833708E-004   4.4260435628357012E-006
 abs           8           4   1.3169105477540280E-002   3.9459871680838955E-003   1.8013520014315632E-003   1.1900000000000001E-002   1.1839301168271746E-003   8.1562263927116777E-005   3.6130967859883276E-006
 abs           8           5   2.2397114460855277E-002   3.2467365216268021E-003   1.4513438181688631E-003   2.1499999999999998E-002   8.3430145238739487E-004   5.9899949184181513E-005   2.9130592837030889E-006
 abs           8           6   4.1326918148567135E-002   2.6434021177926099E-003   1.1513085376628016E-003   4.0700000000000000E-002   5.8792229673242146E-004   3.6647338923823411E-005   2.3485129108924128E-006
 abs           8           7   5.5441629663539625E-002   2.2461504383601552E-003   9.5129489114827452E-004   5.5000000000000000E-002   4.1430184018740864E-004   2.5415140241129314E-005   1.9126831110825711E-006
 abs           8           8   8.5208759748870488E-002   1.9409952122392362E-003   8.0126098341056417E-004   8.4900000000000003E-002   2.9195357232861274E-004   1.5243512181936026E-005   1.5626643599399517E-006
 abs           8           9  0.19972047224624118        1.7333646275780022E-003   7.0122515646122297E-004  0.19950000000000001        2.0573620517080435E-004   1.3478231751735436E-005   1.2578093186221863E-006
 abs           8          10  0.28516087325900308        1.5249428822231503E-003   6.0118825262523877E-004  0.28499999999999998        1.4497985340779140E-004   1.4879480309740800E-005   1.0139252855679744E-006
 abs           8          11  0.35131872784602336        1.2154326461520910E-003   4.5114302619314204E-004  0.35120000000000001        1.0216557594563562E-004   1.5740290558881797E-005   8.2197951881234436E-007
 abs           8          12  0.45601752488172831        1.0096935642256743E-003   3.5112404754872756E-004  0.45590000000000003        7.1994864548142131E-005   4.4857077903720585E-005   6.7293927639032592E-007
 abs           8          13  0.64335728681740434        9.9768704742777777E-004   3.5108155138575975E-004  0.64329999999999998        5.0733923567987791E-005   6.0086711330003735E-006   5.4422270338949179E-007
 abs           9           1   9.7553774836874347E-003   7.9780064751558272E-003   3.8015136608124992E-003   6.3000000000000000E-003   3.3807427897808886E-003   6.7114634155613284E-005   7.5200597509317584E-006
 abs           9           2   7.5764431582183182E-003   6.1550066021843547E-003   2.9014176687887179E-003   5.1000000000000004E-003   2.3823691783610088E-003   8.8003866267504077E-005   6.0701135898043922E-006
 abs           9           3   1.0077779882121742E-002   4.8379323392270402E-003   2.2513349102793109E-003   8.3000000000000001E-003   1.6788271853039598E-003   9.4135926519798443E-005   4.8167702979824332E-006
 abs           9           4   1.3163526096107813E-002   3.9417831310067071E-003   1.8013551137375042E-003   1.1900000000000001E-002   1.1830495221796919E-003   7.6544516542011791E-005   3.9320573861081096E-006
 abs           9           5   2.2393179578026390E-002   3.2417590867056755E-003   1.4513435957193997E-003   2.1499999999999998E-002   8.3368090782744370E-004   5.6328448931396743E-005   3.1702212675496629E-006
 abs           9           6   4.1324624377092750E-002   2.6377864069079713E-003   1.1513062822256876E-003   4.0700000000000000E-002   5.8748500637188414E-004   3.4583533419892835E-005   2.5558373009702707E-006
 abs           9           7   5.5440206171775870E-002   2.2397054843605138E-003   9.5129014305310379E-004   5.5000000000000000E-002   4.1399368687858920E-004   2.4130952018511860E-005   2.0815328787709803E-006
 abs           9           8   8.5207846630891579E-002   1.9342496803682659E-003   8.0125540887864639E-004   8.4900000000000003E-002   2.9173642036208028E-004   1.4409595710008039E-005   1.7006148194917572E-006
 abs           9           9  0.19971962740442642        1.7264387324706020E-003   7.0121870729866872E-004  0.19950000000000001        2.0558318076632992E-004   1.2675376182550628E-005   1.3688474775388854E-006
 abs           9          10  0.28515996862461002        1.5180249030982767E-003   6.0118151979653514E-004  0.28499999999999998        1.4487201893252196E-004   1.3993172073508182E-005   1.1034336039765880E-006
 abs           9          11  0.35131776956384797        1.2084432995318791E-003   4.5113570888302094E-004  0.35120000000000001        1.0208958627525219E-004   1.4785434517304397E-005   8.9454305533959476E-007
 abs           9          12  0.45601479204743456        1.0025948777649624E-003   3.5111577486801138E-004  0.45590000000000003        7.1941315532481282E-005   4.2118386213863651E-005   7.3234568816263519E-007
 abs           9          13  0.64335692983179626        9.9086642730420826E-004   3.5107375860497737E-004  0.64329999999999998        5.0696188214435428E-005   5.6413774380738524E-006   5.9226614378253386E-007
 abs          10           1   9.7353766764760440E-003   7.9349831555471113E-003   3.8013792635504312E-003   6.3000000000000000E-003   3.3733543640644594E-003   5.4220386200040276E-005   7.8019262115441104E-006
 abs          10           2   7.5544045761093111E-003   6.1147090088849018E-003   2.9012927466106658E-003   5.1000000000000004E-003   2.3771626427568694E-003   7.0944300103254371E-005   6.2976332491875656E-006
 abs          10           3   1.0055946522264089E-002   4.7977710295712076E-003   2.2512089251087728E-003   8.3000000000000001E-003   1.6751582016750267E-003   7.5791008375133005E-005   4.9973122139302147E-006
 abs          10           4   1.3146317718170640E-002   3.9014210596662892E-003   1.8012281448610788E-003   1.1900000000000001E-002   1.1804640331150096E-003   6.1774246513645795E-005   4.0794385419838485E-006
 abs          10           5   2.2380637123755452E-002   3.2002986286116530E-003   1.4512127751890470E-003   2.1499999999999998E-002   8.3185894447746422E-004   4.5489131953517602E-005   3.2890473244744781E-006
 abs          10           6   4.1316907746633082E-002   2.5960004859146286E-003   1.1511766172319421E-003   4.0700000000000000E-002   5.8620109049924965E-004   2.8055021081545816E-005   2.6516350522895017E-006
 abs          10           7   5.5434837977189476E-002   2.1967081061549094E-003   9.5115882013833443E-004   5.5000000000000000E-002   4.1308892665494281E-004   1.9589497756365376E-005   2.1595527781626998E-006
 abs          10           8   8.5204544270385138E-002   1.8916120270841929E-003   8.0112698258212481E-004   8.4900000000000003E-002   2.9109884660842545E-004   1.1681066607298397E-005   1.7643571694080147E-006
 abs          10           9  0.19971681590620424        1.6845364038083753E-003   7.0109321089396100E-004  0.19950000000000001        2.0513389013581209E-004   1.0261861525971066E-005   1.4201545424281271E-006
 abs          10          10  0.28515701806291016        1.4770194564556944E-003   6.0105933270444291E-004  0.28499999999999998        1.4455540917637384E-004   1.1317861292973920E-005   1.1447924408442175E-006
 abs          10          11  0.35131472245249512        1.1683037088568114E-003   4.5101709513464914E-004  0.35120000000000001        1.0186647515100587E-004   1.1927905075818993E-005   9.2807226830132545E-007
 abs          10          12  0.45600658425328161        9.6306793800084991E-004   3.5099828113222128E-004  0.45590000000000003        7.1784091780541137E-005   3.4040366072600191E-005   7.5979542844449171E-007
 abs          10          13  0.64335573406614976        9.5303543512313010E-004   3.5096146272129970E-004  0.64329999999999998        5.0585394509022317E-005   4.5342062103549576E-006   6.1446543038631718E-007
 abs          11           1   9.7105085452928296E-003   7.8776790472897228E-003   3.8011938947442440E-003   6.3000000000000000E-003   3.3642729849733370E-003   3.8275571275612118E-005   7.9599890438802877E-006
 abs          11           2   7.5271058396128203E-003   6.0610129980058318E-003   2.9011201663804182E-003   5.1000000000000004E-003   2.3707631030731348E-003   4.9917516625179943E-005   6.4252199145046757E-006
 abs          11           3   1.0028989688755159E-002   4.7446370210930972E-003   2.2510370693074495E-003   8.3000000000000001E-003   1.6706485222802167E-003   5.3242611401082888E-005   5.0985550738579620E-006
 abs          11           4   1.3124997631454971E-002   3.8480004505226980E-003   1.8010548514975967E-003   1.1900000000000001E-002   1.1772861157570372E-003   4.3549429923354376E-005   4.1620857745779278E-006
 abs          11           5   2.2365051825122700E-002   3.1456472203605880E-003   1.4510354214121669E-003   2.1499999999999998E-002   8.2961950396519062E-004   3.2076639501760041E-005   3.3556816557534544E-006
 abs          11           6   4.1307227342287450E-002   2.5410475641760365E-003   1.1510011991302366E-003   4.0700000000000000E-002   5.8462298344261687E-004   1.9899003091354762E-005   2.7053557534756533E-006
 abs          11           7   5.5428056208200419E-002   2.1403150418434240E-003   9.5098168146017360E-004   5.5000000000000000E-002   4.1197685340783262E-004   1.3876050635671997E-005   2.2033041569171905E-006
 abs          11           8   8.5200385272131668E-002   1.8357447220461881E-003   8.0095378221097739E-004   8.4900000000000003E-002   2.9031518183629209E-004   8.2699881978678055E-006   1.8001020975049538E-006
 abs          11           9  0.19971329580673758        1.6296963382821815E-003   7.0092416299859489E-004  0.19950000000000001        2.0458165090455761E-004   7.2652297227068240E-006   1.4489261102749410E-006
 abs          11          10  0.28515333474253973        1.4233793892801385E-003   6.0089479981827924E-004  0.28499999999999998        1.4416625276743338E-004   8.0005044518366526E-006   1.1679853204909312E-006
 abs          11          11  0.35131093973085126        1.1158406132276064E-003   4.5085749566757527E-004  0.35120000000000001        1.0159224126458782E-004   8.4006150728851148E-006   9.4687451371647856E-007
 abs          11          12  0.45599641556603920        9.1147962284176339E-004   3.5084059299806102E-004  0.45590000000000003        7.1590842426985061E-005   2.4049535136690724E-005   7.7518847551513899E-007
 abs          11          13  0.64335425090414133        9.0365428316242639E-004   3.5081066289238271E-004  0.64329999999999998        5.0449213991225514E-005   3.1747759803594568E-006   6.2691416979580040E-007
 abs          12           1   9.6866261851756008E-003   7.8213408909236504E-003   3.8010140850923213E-003   6.3000000000000000E-003   3.3556364018576318E-003   2.2876635996640615E-005   8.1131473213279579E-006
 abs          12           2   7.5010312872305484E-003   6.0081543928313082E-003   2.9009524524554230E-003   5.1000000000000004E-003   2.3646770058156318E-003   2.9805433740511610E-005   6.5488476744052458E-006
 abs          12           3   1.0003354988634090E-002   4.6923667483378005E-003   2.2508702522030075E-003   8.3000000000000001E-003   1.6663597220299845E-003   3.1798610149921299E-005   5.1966564541839200E-006
 abs          12           4   1.3104552475361212E-002   3.7954828384568614E-003   1.8008868326471620E-003   1.1900000000000001E-002   1.1742638493015159E-003   2.6046457525666937E-005   4.2421685340276906E-006
 abs          12           5   2.2350063179745718E-002   3.0919047354690090E-003   1.4508634160671275E-003   2.1499999999999998E-002   8.2748974879002840E-004   1.9153182575131345E-005   3.4202483805598253E-006
 abs          12           6   4.1297760444758053E-002   2.4868149254600107E-003   1.1508301626405482E-003   4.0700000000000000E-002   5.8312217033666322E-004   1.1880864874277704E-005   2.7574095471179985E-006
 abs          12           7   5.5421411875429760E-002   2.0844674789210838E-003   9.5080804160375010E-004   5.5000000000000000E-002   4.1091924828717336E-004   8.2469291748873195E-006   2.2456979677009086E-006
 abs          12           8   8.5196332938739225E-002   1.7802703197595379E-003   8.0078330265454770E-004   8.4900000000000003E-002   2.8956990010413797E-004   4.9283007441217746E-006   1.8347378909669760E-006
 abs          12           9  0.19970987753013200        1.5751765585358629E-003   7.0075748287110951E-004  0.19950000000000001        2.0405645974442367E-004   4.3442654666628905E-006   1.4768049209083895E-006
 abs          12          10  0.28514976628561373        1.3699992075999147E-003   6.0073230806296151E-004  0.28499999999999998        1.4379615681206145E-004   4.7796702568542385E-006   1.1904585448615206E-006
 abs          12          11  0.35130731584642455        1.0635445923019818E-003   4.5069943066412393E-004  0.35120000000000001        1.0133143905278414E-004   5.0193140303111565E-006   9.6509334149129940E-007
 abs          12          12  0.45598656974334617        8.6009739728609290E-004   3.5068468960463867E-004  0.45590000000000003        7.1407058214554721E-005   1.4372581242114348E-005   7.9010388946265722E-007
 abs          12          13  0.64335284982153040        8.5446286171890766E-004   3.5066156151438034E-004  0.64329999999999998        5.0319703445647514E-005   1.8911414493646571E-006   6.3897663543792079E-007
 abs          13           1   9.6763002402040534E-003   7.7967505570320150E-003   3.8009348239672058E-003   6.3000000000000000E-003   3.3519095694754517E-003   1.6233430183383780E-005   8.1572405452181419E-006
 abs          13           2   7.4897652612425838E-003   5.9850789908997021E-003   2.9008784978189653E-003   5.1000000000000004E-003   2.3620507514235316E-003   2.1130070555427622E-005   6.5844392636237930E-006
 abs          13           3   9.9922790902085522E-003   4.6695815909857724E-003   2.2507968891840265E-003   8.3000000000000001E-003   1.6645090318392999E-003   2.2545159196499145E-005   5.2248991727541038E-006
 abs          13           4   1.3095708353449604E-002   3.7725832706057122E-003   1.8008129120369568E-003   1.1900000000000001E-002   1.1729596899663812E-003   1.8483439668730764E-005   4.2652238144931464E-006
 abs          13           5   2.2343586141426074E-002   3.0684898939224532E-003   1.4507878501298678E-003   2.1499999999999998E-002   8.2657072323946354E-004   1.3576581486176025E-005   3.4388367004350990E-006
 abs          13           6   4.1293669824567454E-002   2.4631980754705901E-003   1.1507550755333283E-003   4.0700000000000000E-002   5.8247454397703294E-004   8.4228851110032824E-006   2.7723954794205448E-006
 abs          13           7   5.5418543762110827E-002   2.0601618055041964E-003   9.5073188137188001E-004   5.5000000000000000E-002   4.1046287370495404E-004   5.8229855490788537E-006   2.2579028567973094E-006
 abs          13           8   8.5194581024814642E-002   1.7561291649190647E-003   8.0070853590199381E-004   8.4900000000000003E-002   2.8924829837159764E-004   3.4880171432637228E-006   1.8447092997682856E-006
 abs          13           9  0.19970839853859348        1.5514517705676480E-003   7.0068439049470225E-004  0.19950000000000001        2.0382983083386960E-004   3.0838767191851603E-006   1.4848310404204262E-006
 abs          13          10  0.28514822433172099        1.3467725768192744E-003   6.0066106243136016E-004  0.28499999999999998        1.4363645411800805E-004   3.3909491700874175E-006   1.1969284329421390E-006
 abs          13          11  0.35130574789587893        1.0407956193581017E-003   4.5063015255852878E-004  0.35120000000000001        1.0121889846638872E-004   3.5586589947735042E-006   9.7033841779719053E-007
 abs          13          12  0.45598232581578291        8.3774486903282505E-004   3.5061636532972881E-004  0.45590000000000003        7.1327752203711919E-005   1.0203665643766603E-005   7.9439793544934832E-007
 abs          13          13  0.64335224443551886        8.3305818739578315E-004   3.5059619417537652E-004  0.64329999999999998        5.0263817444363491E-005   1.3381687374856876E-006   6.4244933705803003E-007
 abs          14           1   9.6796281846086504E-003   7.8070617867135395E-003   3.8009616284687608E-003   6.3000000000000000E-003   3.3528632679919587E-003   1.8604860538482991E-005   8.1600560782074665E-006
 abs          14           2   7.4929468521037742E-003   5.9950093666031323E-003   2.9009045793419530E-003   5.1000000000000004E-003   2.3627228114092963E-003   2.3637328762067467E-005   6.5867119324092944E-006
 abs          14           3   9.9951224496271102E-003   4.6793308852050497E-003   2.2508222817087427E-003   8.3000000000000001E-003   1.6649826245068449E-003   2.4913122534223958E-005   5.2267025860413845E-006
 abs          14           4   1.3098547781213228E-002   3.7823242806533535E-003   1.8008380893834120E-003   1.1900000000000001E-002   1.1732934250785784E-003   2.0987660146044265E-005   4.2666959886052114E-006
 abs          14           5   2.2345692895614166E-002   3.0785512828466837E-003   1.4508138689087813E-003   2.1499999999999998E-002   8.2680590239814970E-004   1.5446969575208268E-005   3.4400236408129520E-006
 abs          14           6   4.1295415577386932E-002   2.4740277409838929E-003   1.1507838825063480E-003   4.0700000000000000E-002   5.8264027192910927E-004   1.0001953065235936E-005   2.7733523925933873E-006
 abs          14           7   5.5419704499744184E-002   2.0719826156612216E-003   9.5076407608522405E-004   5.5000000000000000E-002   4.1057966021891567E-004   6.8661573362982893E-006   2.2586821889678841E-006
 abs          14           8   8.5195267411516493E-002   1.7684166256886733E-003   8.0074250980826473E-004   8.4900000000000003E-002   2.8933059643702620E-004   4.0914690643828141E-006   1.8453460150717539E-006
 abs          14           9  0.19970898371891582        1.5638245995613425E-003   7.0071875914628318E-004  0.19950000000000001        2.0388782530038398E-004   3.6105500743930802E-006   1.4853435410331892E-006
 abs          14          10  0.28514880030827688        1.3590717952099464E-003   6.0069540997774494E-004  0.28499999999999998        1.4367732212783034E-004   3.9256445873052124E-006   1.1973415618023376E-006
 abs          14          11  0.35130623130225408        1.0531170012046684E-003   4.5066488521552483E-004  0.35120000000000001        1.0124769766616098E-004   4.0129312504856809E-006   9.7067333740768546E-007
 abs          14          12  0.45598389511442017        8.4982886594351791E-004   3.5065016109674932E-004  0.45590000000000003        7.1348046656784849E-005   1.1752395635475739E-005   7.9467212787772052E-007
 abs          14          13  0.64335236203021118        8.4471698638217388E-004   3.5062876402005644E-004  0.64329999999999998        5.0278118703731342E-005   1.4412404242465585E-006   6.4267108328365993E-007
 abs          15           1   9.6751589900328297E-003   7.7948834796466721E-003   3.8009202426660164E-003   6.3000000000000000E-003   3.3512094043480481E-003   1.5788327904566054E-005   8.1612577802152394E-006
 abs          15           2   7.4879495218505340E-003   5.9836998066014196E-003   2.9008663449134639E-003   5.1000000000000004E-003   2.3615573533974136E-003   1.9804486519416797E-005   6.5876819337031501E-006
 abs          15           3   9.9901955130644905E-003   4.6682689641475679E-003   2.2507847366018715E-003   8.3000000000000001E-003   1.6641613401268040E-003   2.0806700634019206E-005   5.2274723036672777E-006
 abs          15           4   1.3094748409802601E-002   3.7712335827247445E-003   1.8008003049794392E-003   1.1900000000000001E-002   1.1727146757576916E-003   1.7766409715384774E-005   4.2673243295243086E-006
 abs          15           5   2.2342837064582080E-002   3.0673388620437690E-003   1.4507756840122618E-003   2.1499999999999998E-002   8.2639806464478800E-004   1.2998469696616287E-005   3.4405302406789735E-006
 abs          15           6   4.1293655285324533E-002   2.4630347251318563E-003   1.1507470345355417E-003   4.0700000000000000E-002   5.8235287352177755E-004   8.5286509885623594E-006   2.7737608141908001E-006
 abs          15           7   5.5418346173274270E-002   2.0609837751029360E-003   9.5072781544321442E-004   5.5000000000000000E-002   4.1037713398426489E-004   5.7100244730639168E-006   2.2590148169419306E-006
 abs          15           8   8.5194477068744084E-002   1.7577631158353193E-003   8.0070784631001057E-004   8.4900000000000003E-002   2.8918787861161222E-004   3.4435723599583307E-006   1.8456177725192632E-006
 abs          15           9  0.19970836186163682        1.5535537426250592E-003   7.0068552856210602E-004  0.19950000000000001        2.0378725374862420E-004   3.0890456059803535E-006   1.4855622822156497E-006
 abs          15          10  0.28514814075994543        1.3491014018378127E-003   6.0066332700115465E-004  0.28499999999999998        1.4360645055314070E-004   3.3367915023782996E-006   1.1975178899727591E-006
 abs          15          11  0.35130554064025049        1.0434535296859602E-003   4.5063408787673106E-004  0.35120000000000001        1.0119775531157759E-004   3.3720686539379501E-006   9.7081628496677998E-007
 abs          15          12  0.45598212193944559        8.4044358494213235E-004   3.5062007764905234E-004  0.45590000000000003        7.1312852874337422E-005   1.0014297414890758E-005   7.9478915637390231E-007
 abs          15          13  0.64335207520654847        8.3581852161676400E-004   3.5060024629211866E-004  0.64329999999999998        5.0253318064408492E-005   1.1791227569359727E-006   6.4276572713459892E-007
 abs          16           1   9.6581836095089441E-003   7.7526972278083488E-003   3.8007873001525924E-003   6.3000000000000000E-003   3.3452979823810889E-003   4.7226507461961470E-006   8.1629763816583727E-006
 abs          16           2   7.4698200110066377E-003   5.9438714971323022E-003   2.9007413156272050E-003   5.1000000000000004E-003   2.3573916447439960E-003   5.8392970918258045E-006   6.5890691708157443E-006
 abs          16           3   9.9725834622282194E-003   4.6290319410516260E-003   2.2506614451254193E-003   8.3000000000000001E-003   1.6612258148535023E-003   6.1290742675106544E-006   5.2285731072060164E-006
 abs          16           4   1.3080223821896504E-002   3.7318060892287119E-003   1.8006762462795783E-003   1.1900000000000001E-002   1.1706460460605276E-003   5.3095528913179688E-006   4.2682229446579729E-006
 abs          16           5   2.2332218934958091E-002   3.0269522173002926E-003   1.4506487920538692E-003   2.1499999999999998E-002   8.2494032593515812E-004   3.8373542738025963E-006   3.4412547491304906E-006
 abs          16           6   4.1286638372525511E-002   2.4217206619908654E-003   1.1506185748837955E-003   4.0700000000000000E-002   5.8132562241517945E-004   2.5384051963067847E-006   2.7743449140276822E-006
 abs          16           7   5.5413534727746537E-002   2.0178993902866646E-003   9.5059517368807221E-004   5.5000000000000000E-002   4.0965324236429487E-004   1.6219948609070015E-006   2.2594905213283146E-006
 abs          16           8   8.5191527985080687E-002   1.7144760876250666E-003   8.0057559692908145E-004   8.4900000000000003E-002   2.8867776080877214E-004   1.0042178483418703E-006   1.8460064235645732E-006
 abs          16           9  0.19970584404696209        1.5107196575235846E-003   7.0055516741091245E-004  0.19950000000000001        2.0342777980860932E-004   9.3039204084224440E-007   1.4858751126090567E-006
 abs          16          10  0.28514554804987935        1.3070065303391531E-003   6.0053556634938538E-004  0.28499999999999998        1.4335313354904794E-004   9.9714626643446952E-007   1.1977700638446436E-006
 abs          16          11  0.35130298676071564        1.0020065400013426E-003   4.5050883672217767E-004  0.35120000000000001        1.0101924583587020E-004   9.9649415987680255E-007   9.7102071990968880E-007
 abs          16          12  0.45597499482614118        7.9967967685169446E-004   3.5049674800562879E-004  0.45590000000000003        7.1187059372904496E-005   3.0128102447595705E-006   7.9495652344254735E-007
 abs          16          13  0.64335114487058276        7.9666609483310244E-004   3.5048189602444239E-004  0.64329999999999998        5.0164672882184694E-005   3.3729661949219364E-007   6.4290108103910711E-007
 abs          17           1   9.6568863098758801E-003   7.7491223858464631E-003   3.8007763646468649E-003   6.3000000000000000E-003   3.3448450000098536E-003   3.8692604697004548E-006   8.1720493963258382E-006
 abs          17           2   7.4684250437498162E-003   5.9405156281556702E-003   2.9007310849485830E-003   5.1000000000000004E-003   2.3570724334621338E-003   4.7562174743078388E-006   6.5963928133741244E-006
 abs          17           3   9.9712396073710751E-003   4.6257335289379767E-003   2.2506513523558782E-003   8.3000000000000001E-003   1.6610008704650702E-003   5.0043523253500199E-006   5.2343845806531520E-006
 abs          17           4   1.3079117268926806E-002   3.7285061623867351E-003   1.8006661449315202E-003   1.1900000000000001E-002   1.1704875304291505E-003   4.3567714930400081E-006   4.2729670046148178E-006
 abs          17           5   2.2331389048901914E-002   3.0235865603238888E-003   1.4506384848964771E-003   2.1499999999999998E-002   8.2482862185769240E-004   3.1153473967521056E-006   3.4450796474706969E-006
 abs          17           6   4.1286077851968035E-002   2.4183131691586876E-003   1.1506082165653945E-003   4.0700000000000000E-002   5.8124690588221635E-004   2.0535175328180682E-006   2.7774285529996315E-006
 abs          17           7   5.5413120867630727E-002   2.0143789027897378E-003   9.5058454545963566E-004   5.5000000000000000E-002   4.0959777176105181E-004   1.2610939616145509E-006   2.2620019080679691E-006
 abs          17           8   8.5191287294490201E-002   1.7109759305176885E-003   8.0056509658189899E-004   8.4900000000000003E-002   2.8863867133533728E-004   8.0056492537238209E-007   1.8480582294959087E-006
 abs          17           9  0.19970565049505806        1.5072892875188360E-003   7.0054491162076531E-004  0.19950000000000001        2.0340023392224638E-004   7.6273449734619392E-007   1.4875266384815334E-006
 abs          17          10  0.28514534714566908        1.3036447293721743E-003   6.0052553708641264E-004  0.28499999999999998        1.4333372229100724E-004   8.1432201243249385E-007   1.1991013656700334E-006
 abs          17          11  0.35130278918875019        9.9870257075958236E-004   4.5049901008009500E-004  0.35120000000000001        1.0100556695352246E-004   8.1152180307778736E-007   9.7209999354987098E-007
 abs          17          12  0.45597445039910278        7.9646018651003010E-004   3.5048716875232220E-004  0.45590000000000003        7.1177420027433380E-005   2.4771389707356126E-006   7.9584010460950973E-007
 abs          17          13  0.64335107210710452        7.9359483156298482E-004   3.5047277215289918E-004  0.64329999999999998        5.0157880150238513E-005   2.7061129913475480E-007   6.4361565507010691E-007
 abs          18           1   9.6552754724685916E-003   7.7458671628660766E-003   3.8007667472359412E-003   6.3000000000000000E-003   3.3442882137449141E-003   2.8059770480197741E-006   8.1812816756560224E-006
 abs          18           2   7.4667315946283213E-003   5.9374026610475462E-003   2.9007219168113393E-003   5.1000000000000004E-003   2.3566800728127119E-003   3.4476768029053863E-006   6.6038450127027371E-006
 abs          18           3   9.9695865695980500E-003   4.6226214785446609E-003   2.2506421405886104E-003   8.3000000000000001E-003   1.6607243785885482E-003   3.6218929427417315E-006   5.2402980667600672E-006
 abs          18           4   1.3077726654041201E-002   3.7253658432155417E-003   1.8006568423309032E-003   1.1900000000000001E-002   1.1702926898968615E-003   3.1561698041262902E-006   4.2777943402122996E-006
 abs          18           5   2.2330403315018180E-002   3.0203211286367743E-003   1.4506287990748157E-003   2.1499999999999998E-002   8.2469132005519395E-004   2.2630232761931730E-006   3.4489716867961668E-006
 abs          18           6   4.1285428407411451E-002   2.4148692475502299E-003   1.1505980646850109E-003   4.0700000000000000E-002   5.8115015093729880E-004   1.4976901530131064E-006   2.7805663211379946E-006
 abs          18           7   5.5412722769418048E-002   2.0106856184923826E-003   9.5057371615932490E-004   5.5000000000000000E-002   4.0952958970374699E-004   9.2862233544100041E-007   2.2645573788498862E-006
 abs          18           8   8.5191026288866947E-002   1.7071775841083800E-003   8.0055400904330688E-004   8.4900000000000003E-002   2.8859062425162205E-004   5.8551856316967260E-007   1.8501460521418196E-006
 abs          18           9  0.19970540947962540        1.5034625361559026E-003   7.0053376063663694E-004  0.19950000000000001        2.0336637571460655E-004   5.5389675609112263E-007   1.4892071546864067E-006
 abs          18          10  0.28514510176443092        1.2998577466281909E-003   6.0051451802971181E-004  0.28499999999999998        1.4330986281534423E-004   5.9144557886266263E-007   1.2004560367220767E-006
 abs          18          11  0.35130255060056231        9.9494463476887526E-004   4.5048810029408936E-004  0.35120000000000001        1.0098875346519580E-004   5.8864888467382831E-007   9.7319821239829811E-007
 abs          18          12  0.45597375783015742        7.9271863768073209E-004   3.5047628840880163E-004  0.45590000000000003        7.1165571762462951E-005   1.7955191990844978E-006   7.9673919586454071E-007
 abs          18          13  0.64335099010416230        7.8996939583568049E-004   3.5046223469105495E-004  0.64329999999999998        5.0149530819030025E-005   1.9623057075578355E-007   6.4434277249447757E-007
 abs          19           1   9.6536264679073294E-003   7.7423822451229436E-003   3.8007564004643411E-003   6.3000000000000000E-003   3.3437185539817752E-003   1.7173994863120398E-006   8.1905144392408565E-006
 abs          19           2   7.4649951280417433E-003   5.9340785364536625E-003   2.9007120784428145E-003   5.1000000000000004E-003   2.3562786403624361E-003   2.1051900763900652E-006   6.6112976029166388E-006
 abs          19           3   9.9678951753951178E-003   4.6193075503446340E-003   2.2506322882833410E-003   8.3000000000000001E-003   1.6604414939220124E-003   2.2074696100614104E-006   5.2462118630431633E-006
 abs          19           4   1.3076305208935626E-002   3.7220260986385281E-003   1.8006469071033203E-003   1.1900000000000001E-002   1.1700933444415895E-003   1.9292425650203566E-006   4.2826219290148270E-006
 abs          19           5   2.2329388997413380E-002   3.0168581620367285E-003   1.4506184869257082E-003   2.1499999999999998E-002   8.2455084368712424E-004   1.3852897959891585E-006   3.4528639302682043E-006
 abs          19           6   4.1284756686820252E-002   2.4112363023944916E-003   1.1505873141561401E-003   4.0700000000000000E-002   5.8105115891383312E-004   9.2182365255987929E-007   2.7837042538596374E-006
 abs          19           7   5.5412300859282594E-002   2.0068078352367979E-003   9.5056230325732036E-004   5.5000000000000000E-002   4.0945983120383361E-004   5.7391509508492663E-007   2.2671129836722240E-006
 abs          19           8   8.5190754223861201E-002   1.7032059369981435E-003   8.0054237403654306E-004   8.4900000000000003E-002   2.8854146626757643E-004   3.6052360931353376E-007   1.8522339842989127E-006
 abs          19           9  0.19970516244959169        1.4994747213644573E-003   7.0052210146793808E-004  0.19950000000000001        2.0333173466873501E-004   3.3982716392014965E-007   1.4908877590382865E-006
 abs          19          10  0.28514484982332539        1.2959158168196255E-003   6.0050301031605265E-004  0.28499999999999998        1.4328545168290315E-004   3.6256086365148797E-007   1.2018107788297859E-006
 abs          19          11  0.35130230565729642        9.9103707050913949E-004   4.5047671885113004E-004  0.35120000000000001        1.0097155123090804E-004   3.5980957664197139E-007   9.7429648885087308E-007
 abs          19          12  0.45597305023293588        7.8883868802921448E-004   3.5046497233628911E-004  0.45590000000000003        7.1153449552843818E-005   1.0991450487452214E-006   7.9763833427901141E-007
 abs          19          13  0.64335090543511386        7.8621676374897320E-004   3.5045129716619920E-004  0.64329999999999998        5.0140988442290343E-005   1.1937674359437169E-007   6.4506992805785833E-007
 abs          20           1   9.6514573556920457E-003   7.7376216843669304E-003   3.8007422544965794E-003   6.3000000000000000E-003   3.3429750966676138E-003   2.8244324679366511E-007   8.1998157776384365E-006
 abs          20           2   7.4627185731873345E-003   5.9295389245491879E-003   2.9006986238820408E-003   5.1000000000000004E-003   2.3557547348479323E-003   3.4503279339990292E-007   6.6188055460022663E-006
 abs          20           3   9.9656859932578824E-003   4.6147930770026758E-003   2.2506188673287841E-003   8.3000000000000001E-003   1.6600723039458037E-003   3.6151972901799833E-007   5.2521695830625277E-006
 abs          20           4   1.3074437768013937E-002   3.7174797687963561E-003   1.8006333870629321E-003   1.1900000000000001E-002   1.1698331806625118E-003   3.1710197749595915E-007   4.2874853739285948E-006
 abs          20           5   2.2328051571204901E-002   3.0121514613164063E-003   1.4506044834473454E-003   2.1499999999999998E-002   8.2436750937063194E-004   2.2727675154109410E-007   3.4567850827299293E-006
 abs          20           6   4.1283860559851011E-002   2.4063020831679438E-003   1.1505727101730711E-003   4.0700000000000000E-002   5.8092196540456421E-004   1.5172895338626522E-007   2.7868654930535863E-006
 abs          20           7   5.5411732203840908E-002   2.0015446882435265E-003   9.5054679606646560E-004   5.5000000000000000E-002   4.0936879007658284E-004   9.3726194500214014E-008   2.2696875698234496E-006
 abs          20           8   8.5190390766748600E-002   1.6978188653947810E-003   8.0052656342576966E-004   8.4900000000000003E-002   2.8847731066952823E-004   5.9118654843344347E-008   1.8543374242241171E-006
 abs          20           9  0.19970483510590392        1.4940712294529215E-003   7.0050627204605045E-004  0.19950000000000001        2.0328652498290169E-004   5.6000075192518048E-008   1.4925808457988918E-006
 abs          20          10  0.28514451641379035        1.2905751402972742E-003   6.0048738428102196E-004  0.28499999999999998        1.4325359295575647E-004   5.9645251585575780E-008   1.2031755830587119E-006
 abs          20          11  0.35130198351976277        9.8574236678217794E-004   4.5046125520513413E-004  0.35120000000000001        1.0094910076533417E-004   5.9016074865419691E-008   9.7540292256875512E-007
 abs          20          12  0.45597211713872732        7.8358980708508616E-004   3.5044963228802003E-004  0.45590000000000003        7.1137628977145276E-005   1.8096559921811459E-007   7.9854415089420063E-007
 abs          20          13  0.64335079506826842        7.8114349907091902E-004   3.5043648083264565E-004  0.64329999999999998        5.0129839871023091E-005   1.9425912911701679E-008   6.4580248444799449E-007
 abs          21           1   9.6510595897954469E-003   7.7371676250211152E-003   3.8007420766196032E-003   6.3000000000000000E-003   3.3428295092356713E-003   2.8874256351676475E-011   8.2300516855190077E-006
 abs          21           2   7.4622953879401668E-003   5.9290989425728269E-003   2.9006984250572608E-003   5.1000000000000004E-003   2.3556521411186295E-003   3.5166886120910753E-011   6.6432116546509638E-006
 abs          21           3   9.9652715805738350E-003   4.6143063652999599E-003   2.2506183972159414E-003   8.3000000000000001E-003   1.6600000073666841E-003   3.6833419512317434E-011   5.2715363737311292E-006
 abs          21           4   1.3074085561530913E-002   3.7169959254090817E-003   1.8006329477344950E-003   1.1900000000000001E-002   1.1697822341242788E-003   3.2407670869606558E-011   4.3032949989641876E-006
 abs          21           5   2.2327801162721306E-002   3.0116168098933667E-003   1.4506038467114789E-003   2.1499999999999998E-002   8.2433160795192674E-004   2.3176466470210338E-011   3.4695315929148763E-006
 abs          21           6   4.1283693823357191E-002   2.4056997841647955E-003   1.1505718355888316E-003   4.0700000000000000E-002   5.8089666610239873E-004   1.5505463153984432E-011   2.7971417493267218E-006
 abs          21           7   5.5411629028241871E-002   2.0008585842304183E-003   9.5054564467878422E-004   5.5000000000000000E-002   4.0935096195966861E-004   9.4921285610196147E-012   2.2780567900766667E-006
 abs          21           8   8.5190325928512584E-002   1.6970932039207169E-003   8.0052527396321080E-004   8.4900000000000003E-002   2.8846474740787669E-004   6.0176592043208829E-012   1.8611750870520110E-006
 abs          21           9  0.19970477576210721        1.4933278213335773E-003   7.0050490324143891E-004  0.19950000000000001        2.0327767180204780E-004   5.7336440372913345E-012   1.4980845715144077E-006
 abs          21          10  0.28514445497248114        1.2898313929247871E-003   6.0048598756633090E-004  0.28499999999999998        1.4324735422465261E-004   6.0974065704546732E-012   1.2076121590843251E-006
 abs          21          11  0.35130192371003649        9.8499018515964547E-004   4.5045979663390186E-004  0.35120000000000001        1.0094470440583032E-004   6.0184183582232274E-012   9.7899961226435256E-007
 abs          21          12  0.45597193603812897        7.8283853683222321E-004   3.5044815621854526E-004  0.45590000000000003        7.1134530914964797E-005   1.8520418500963336E-011   8.0148869355707984E-007
 abs          21          13  0.64335077584247968        7.8041792991394971E-004   3.5043506074350676E-004  0.64329999999999998        5.0127656703503293E-005   1.9669473883799363E-012   6.4818380921898070E-007
 abs          22           1   9.6510927995961029E-003   7.7377217531908399E-003   3.8007450746847401E-003   6.3000000000000000E-003   3.3428294944024221E-003   2.7900416372036687E-015   8.2633051908920321E-006
 abs          22           2   7.4623221842056468E-003   5.9296204735915159E-003   2.9007012467621085E-003   5.1000000000000004E-003   2.3556521306658156E-003   3.3926490975213613E-015   6.6700535364389925E-006
 abs          22           3   9.9652928360088877E-003   4.6147681276601082E-003   2.2506208955706199E-003   8.3000000000000001E-003   1.6600000000007106E-003   3.5529852357268433E-015   5.2928360046236544E-006
 abs          22           4   1.3074102911389451E-002   3.7174685541931526E-003   1.8006355048781634E-003   1.1900000000000001E-002   1.1697822289335649E-003   3.1311268303312461E-015   4.3206824527540036E-006
 abs          22           5   2.2327815154523860E-002   3.0120677011275256E-003   1.4506062862630776E-003   2.1499999999999998E-002   8.2433160429409261E-004   2.2362674975371423E-015   3.4835502275329154E-006
 abs          22           6   4.1283705107120559E-002   2.4061267627554727E-003   1.1505741457864837E-003   4.0700000000000000E-002   5.8089666352476651E-004   1.4975212394419684E-015   2.8084435942901025E-006
 abs          22           7   5.5411638221417578E-002   2.0012659949968053E-003   9.5054784903290739E-004   5.5000000000000000E-002   4.0935096014324188E-004   9.1183461619184106E-016   2.2872612734266506E-006
 abs          22           8   8.5190333441289262E-002   1.6974853978509274E-003   8.0052739600234744E-004   8.4900000000000003E-002   2.8846474612786240E-004   5.7986600824280910E-016   1.8686951608161065E-006
 abs          22           9  0.19970478180847948        1.4937048007048269E-003   7.0050694297178675E-004  0.19950000000000001        2.0327767090003699E-004   5.5444274245074253E-016   1.5041375788649874E-006
 abs          22          10  0.28514445984510289        1.2901942462118492E-003   6.0048795087198003E-004  0.28499999999999998        1.4324735358901635E-004   5.8912311069094278E-016   1.2124915133040923E-006
 abs          22          11  0.35130192765921647        9.8533347845241844E-004   4.5046165411840168E-004  0.35120000000000001        1.0094470395790502E-004   5.8076635857232114E-016   9.8295525800153574E-007
 abs          22          12  0.45597193925770796        7.8317313722596580E-004   3.5044996667236674E-004  0.45590000000000003        7.1134530599317169E-005   1.7906764711343267E-015   8.0472710682543304E-007
 abs          22          13  0.64335077845927569        7.8074275334595860E-004   3.5043681829557673E-004  0.64329999999999998        5.0127656481070171E-005   1.8907503824764981E-016   6.5080279444607174E-007
 abs          23           1   9.6511261044965446E-003   7.7382768349258660E-003   3.8007480776769487E-003   6.3000000000000000E-003   3.3428294944009922E-003   6.5624490078145193E-019   8.2966100955518218E-006
 abs          23           2   7.4623490675720027E-003   5.9301429034596389E-003   2.9007040731077165E-003   5.1000000000000004E-003   2.3556521306648077E-003   8.3545354921086724E-019   6.6969369071937905E-006
 abs          23           3   9.9653141685579361E-003   4.6152306957715555E-003   2.2506233980641240E-003   8.3000000000000001E-003   1.6600000000000005E-003   8.8703431738191914E-019   5.3141685579351541E-006
 abs          23           4   1.3074120325715054E-002   3.7179420062602975E-003   1.8006380662538681E-003   1.1900000000000001E-002   1.1697822289330644E-003   7.4833399506307836E-019   4.3380967819878811E-006
 abs          23           5   2.2327829194824216E-002   3.0125193852828126E-003   1.4506087298743798E-003   2.1499999999999998E-002   8.2433160429373992E-004   5.4260062219447723E-019   3.4975905304777291E-006
 abs          23           6   4.1283716426432811E-002   2.4065545022075793E-003   1.1505764598569430E-003   4.0700000000000000E-002   5.8089666352451801E-004   3.4502374879890039E-019   2.8197629082921228E-006
 abs          23           7   5.5411647440127033E-002   2.0016741433278432E-003   9.5055005711540365E-004   5.5000000000000000E-002   4.0935096014306678E-004   2.2881633400396017E-019   2.2964799839648348E-006
 abs          23           8   8.5190340972985959E-002   1.6978783086436041E-003   8.0052952164976193E-004   8.4900000000000003E-002   2.8846474612773901E-004   1.3967133499097449E-019   1.8762268582097585E-006
 abs          23           9  0.19970478787084220        1.4940824739593645E-003   7.0050898618412012E-004  0.19950000000000001        2.0327767089995004E-004   1.2673172567438552E-019   1.5101999422295311E-006
 abs          23          10  0.28514446473199839        1.2905577703239994E-003   6.0048991753745276E-004  0.28499999999999998        1.4324735358895506E-004   1.3736656166274367E-019   1.2173784094453491E-006
 abs          23          11  0.35130193162097578        9.8567741144426312E-004   4.5046351479591343E-004  0.35120000000000001        1.0094470395786184E-004   1.4235804588619307E-019   9.8691701790224280E-007
 abs          23          12  0.45597194250112494        7.8350836305326891E-004   3.5045178024411817E-004  0.45590000000000003        7.1134530599286730E-005   4.1273695177045478E-019   8.0797052564524275E-007
 abs          23          13  0.64335078108230881        7.8106818361340074E-004   3.5043857887334846E-004  0.64329999999999998        5.0127656481048724E-005   5.0670764509146241E-020   6.5342582778692458E-007
 abs          24           1   9.6511598287239587E-003   7.7388389053827883E-003   3.8007511184781208E-003   6.3000000000000000E-003   3.3428294944009914E-003   1.3499423216904734E-023   8.3303343229672916E-006
 abs          24           2   7.4623762894156995E-003   5.9306719109485061E-003   2.9007069350382312E-003   5.1000000000000004E-003   2.3556521306648073E-003   1.7185872264200015E-023   6.7241587508918982E-006
 abs          24           3   9.9653357696970635E-003   4.6156990878189899E-003   2.2506259320651005E-003   8.3000000000000001E-003   1.6600000000000000E-003   1.8246925262196507E-023   5.3357696970640165E-006
 abs          24           4   1.3074137959298016E-002   3.7184214192970840E-003   1.8006406598783972E-003   1.1900000000000001E-002   1.1697822289330642E-003   1.5393761223781103E-023   4.3557303649502178E-006
 abs          24           5   2.2327843411900479E-002   3.0129767563408963E-003   1.4506112042518041E-003   2.1499999999999998E-002   8.2433160429373970E-004   1.1161679775395994E-023   3.5118076067411134E-006
 abs          24           6   4.1283727888261734E-002   2.4069876270890896E-003   1.1505788030625520E-003   4.0700000000000000E-002   5.8089666352451790E-004   7.0973833082331255E-024   2.8312247372176417E-006
 abs          24           7   5.5411656774905012E-002   2.0020874304285206E-003   9.5055229299861833E-004   5.5000000000000000E-002   4.0935096014306667E-004   4.7069143363732961E-024   2.3058147619455218E-006
 abs          24           8   8.5190348599510593E-002   1.6982761663591893E-003   8.0053167406000329E-004   8.4900000000000003E-002   2.8846474612773896E-004   2.8731384580177592E-024   1.8838533828409692E-006
 abs          24           9  0.19970479400953325        1.4944649022898579E-003   7.0051105512138816E-004  0.19950000000000001        2.0327767089994999E-004   2.6069615136818363E-024   1.5163386332982946E-006
 abs          24          10  0.28514446968042256        1.2909258713683356E-003   6.0049190896410264E-004  0.28499999999999998        1.4324735358895504E-004   2.8257276354120969E-024   1.2223268336641549E-006
 abs          24          11  0.35130193563261591        9.8602567470776684E-004   4.5046539890016902E-004  0.35120000000000001        1.0094470395786181E-004   2.9284060073622759E-024   9.9092865802617448E-007
 abs          24          12  0.45597194578537975        7.8384780952529170E-004   3.5045361664953181E-004  0.45590000000000003        7.1134530599286717E-005   8.4902919360894199E-024   8.1125478047197802E-007
 abs          24          13  0.64335078373836729        7.8139771119500716E-004   3.5044036161756498E-004  0.64329999999999998        5.0127656481048711E-005   1.0423335770206328E-024   6.5608188622062656E-007
 abs          25           1   9.6510940610430689E-003   7.7377427773679640E-003   3.8007451884255606E-003   6.3000000000000000E-003   3.3428294944009914E-003   1.4529836745572473E-026   8.2645666420778207E-006
 abs          25           2   7.4623232024314517E-003   5.9296402610522006E-003   2.9007013538122923E-003   5.1000000000000004E-003   2.3556521306648073E-003   1.8497673146241523E-026   6.6710717666445140E-006
 abs          25           3   9.9652936439929649E-003   4.6147856478066362E-003   2.2506209903546339E-003   8.3000000000000001E-003   1.6600000000000000E-003   1.9639716520360161E-026   5.2936439929648780E-006
 abs          25           4   1.3074103570968139E-002   3.7174864865785573E-003   1.8006356018923900E-003   1.1900000000000001E-002   1.1697822289330642E-003   1.6568769930982873E-026   4.3213420350733706E-006
 abs          25           5   2.2327815686309517E-002   3.0120848090347155E-003   1.4506063788168777E-003   2.1499999999999998E-002   8.2433160429373970E-004   1.2013652904797754E-026   3.4840820157779048E-006
 abs          25           6   4.1283705535847315E-002   2.4061429637364895E-003   1.1505742334338143E-003   4.0700000000000000E-002   5.8089666352451790E-004   7.6391279192018329E-027   2.8088723227976904E-006
 abs          25           7   5.5411638570582886E-002   2.0012814539470320E-003   9.5054793266585345E-004   5.5000000000000000E-002   4.0935096014306667E-004   5.0661939983669757E-027   2.2876104398169652E-006
 abs          25           8   8.5190333726557918E-002   1.6975002796663430E-003   8.0052747651299496E-004   8.4900000000000003E-002   2.8846474612773896E-004   3.0924456602076824E-027   1.8689804301692325E-006
 abs          25           9  0.19970478203809591        1.4937191053856537E-003   7.0050702036013638E-004  0.19950000000000001        2.0327767089994999E-004   2.8059513793414312E-027   1.5043671959599169E-006
 abs          25          10  0.28514446003019750        1.2902080149821565E-003   6.0048802536105347E-004  0.28499999999999998        1.4324735358895504E-004   3.0414159605408882E-027   1.2126766085924645E-006
 abs          25          11  0.35130192780927089        9.8534650519269910E-004   4.5046172459309249E-004  0.35120000000000001        1.0094470395786181E-004   3.1519317920520475E-027   9.8310531297919164E-007
 abs          25          12  0.45597193938055330        7.8318583417516237E-004   3.5045003536288762E-004  0.45590000000000003        7.1134530599286717E-005   9.1383575262051341E-027   8.0484995403241505E-007
 abs          25          13  0.64335077855862510        7.8075507928043362E-004   3.5043688497890714E-004  0.64329999999999998        5.0127656481048711E-005   1.1218950961973735E-027   6.5090214403292632E-007
 abs          26           1   9.6509898636457907E-003   7.7360061540800015E-003   3.8007357932935727E-003   6.3000000000000000E-003   3.3428294944009914E-003   1.4933118507636388E-021   8.1603692448000968E-006
 abs          26           2   7.4622390953820155E-003   5.9280057920752952E-003   2.9006925113351273E-003   5.1000000000000004E-003   2.3556521306648073E-003   1.9011083885200574E-021   6.5869647172079208E-006
 abs          26           3   9.9652269031764076E-003   4.6133384617333345E-003   2.2506131610779772E-003   8.3000000000000001E-003   1.6600000000000000E-003   2.0184825156021880E-021   5.2269031764079052E-006
 abs          26           4   1.3074049088668908E-002   3.7160052490682366E-003   1.8006275883974592E-003   1.1900000000000001E-002   1.1697822289330642E-003   1.7028643145665378E-021   4.2668597358431882E-006
 abs          26           5   2.2327771759955761E-002   3.0106716743984324E-003   1.4505987337584954E-003   2.1499999999999998E-002   8.2433160429373970E-004   1.2347096920522666E-021   3.4401556620235704E-006
 abs          26           6   4.1283670122352817E-002   2.4048047422616484E-003   1.1505669936556354E-003   4.0700000000000000E-002   5.8089666352451790E-004   7.8511551444097265E-022   2.7734588282980721E-006
 abs          26           7   5.5411609729015730E-002   2.0000045250588246E-003   9.5054102448056824E-004   5.5000000000000000E-002   4.0935096014306667E-004   5.2068083547699597E-022   2.2587688726619876E-006
 abs          26           8   8.5190310162963495E-002   1.6962710227899620E-003   8.0052082623329368E-004   8.4900000000000003E-002   2.8846474612773896E-004   3.1782777969875730E-022   1.8454168357521787E-006
 abs          26           9  0.19970476307144550        1.4925375205210990E-003   7.0050062798601915E-004  0.19950000000000001        2.0327767089994999E-004   2.8838317462265778E-022   1.4854005455404097E-006
 abs          26          10  0.28514444474110229        1.2890706969857265E-003   6.0048187247069274E-004  0.28499999999999998        1.4324735358895504E-004   3.1258317464312556E-022   1.1973875133709946E-006
 abs          26          11  0.35130191541454781        9.8427047978290284E-004   4.5045590329562547E-004  0.35120000000000001        1.0094470395786181E-004   3.2394149915719151E-022   9.7071058990432526E-007
 abs          26          12  0.45597192923322510        7.8213704991498135E-004   3.5044436144004006E-004  0.45590000000000003        7.1134530599286717E-005   9.3919965030271634E-022   7.9470262580079361E-007
 abs          26          13  0.64335077035222876        7.7973694131356958E-004   3.5043137685250640E-004  0.64329999999999998        5.0127656481048711E-005   1.1530337689276919E-022   6.4269574771138013E-007
 abs          27           1   9.6503511904022735E-003   7.7253616000098725E-003   3.8006782062560496E-003   6.3000000000000000E-003   3.3428294944012737E-003   5.1851504143364879E-016   7.5216960004805474E-006
 abs          27           2   7.4617235650189960E-003   5.9179873882445914E-003   2.9006383117703991E-003   5.1000000000000004E-003   2.3556521306650063E-003   6.6011214893878181E-016   6.0714343533290685E-006
 abs          27           3   9.9648178183540902E-003   4.6044680000084121E-003   2.2505651718800414E-003   8.3000000000000001E-003   1.6600000000001403E-003   7.0086736717140193E-016   4.8178183532489775E-006
 abs          27           4   1.3073715141875183E-002   3.7069260705968159E-003   1.8005784700419248E-003   1.1900000000000001E-002   1.1697822289331631E-003   5.9127687239060539E-016   3.9329129414277376E-006
 abs          27           5   2.2327502515353266E-002   3.0020099294200773E-003   1.4505518737181584E-003   2.1499999999999998E-002   8.2433160429380931E-004   4.2872193561285957E-016   3.1709110590261132E-006
 abs          27           6   4.1283453056936766E-002   2.3966021741256569E-003   1.1505226177620158E-003   4.0700000000000000E-002   5.8089666352456690E-004   2.7261164725397751E-016   2.5563934119280289E-006
 abs          27           7   5.5411432945931649E-002   1.9921776470666307E-003   9.5049868107062604E-004   5.5000000000000000E-002   4.0935096014310126E-004   1.8079334523662991E-016   2.0819857883683084E-006
 abs          27           8   8.5190165730975043E-002   1.6887363482428928E-003   8.0048006364398961E-004   8.4900000000000003E-002   2.8846474612776330E-004   1.1035771548654918E-016   1.7009848471674964E-006
 abs          27           9  0.19970464681621783        1.4852950494191274E-003   7.0046144621735299E-004  0.19950000000000001        2.0327767089996714E-004   1.0013381576110074E-016   1.3691453177345308E-006
 abs          27          10  0.28514435102728325        1.2820995576541846E-003   6.0044415860690463E-004  0.28499999999999998        1.4324735358896713E-004   1.0853665807892639E-016   1.1036736941881588E-006
 abs          27          11  0.35130183944165216        9.7767503059504853E-004   4.5042022191551481E-004  0.35120000000000001        1.0094470395787034E-004   1.1248055104610268E-016   8.9473769417481016E-007
 abs          27          12  0.45597186703563503        7.7570857412431033E-004   3.5040958338600816E-004  0.45590000000000003        7.1134530599292720E-005   3.2611349420561322E-016   7.3250503534091597E-007
 abs          27          13  0.64335072005149285        7.7349631059468813E-004   3.5039761504031307E-004  0.64329999999999998        5.0127656481052946E-005   4.0036202228235618E-017   5.9239501180255286E-007
 abs          28           1   9.6489526461581258E-003   7.7020453521546677E-003   3.8005520627710119E-003   6.3000000000000000E-003   3.3428296708233073E-003   3.2407304162732984E-010   6.1226512617778922E-006
 abs          28           2   7.4605948076298390E-003   5.8960426885276227E-003   2.9005195884871482E-003   5.1000000000000004E-003   2.3556522549875122E-003   4.1257154533118493E-010   4.9421400707815001E-006
 abs          28           3   9.9639222238461951E-003   4.5850379094795491E-003   2.2504600526682540E-003   8.3000000000000001E-003   1.6600000876087293E-003   4.3804364638791169E-010   3.9216981938185190E-006
 abs          28           4   1.3072984046499907E-002   3.6870387830245438E-003   1.8004708773849843E-003   1.1900000000000001E-002   1.1697822906698923E-003   3.6954934605120419E-010   3.2013862806681791E-006
 abs          28           5   2.2326913033439887E-002   2.9830370787508062E-003   1.4504492280956766E-003   2.1499999999999998E-002   8.2433164779894717E-004   2.6795215294481406E-010   2.5811176887887193E-006
 abs          28           6   4.1282977765647433E-002   2.3786351992799788E-003   1.1504254138218395E-003   4.0700000000000000E-002   5.8089669418211946E-004   1.7038287927841775E-010   2.0809010824343163E-006
 abs          28           7   5.5411045828605676E-002   1.9750336897388920E-003   9.5040592949604695E-004   5.5000000000000000E-002   4.0935098174711335E-004   1.1299623851762843E-010   1.6947338623287173E-006
 abs          28           8   8.5189849429892064E-002   1.6722324839288602E-003   8.0039077492149156E-004   8.4900000000000003E-002   2.8846476135185330E-004   6.8973814965685906E-011   1.3845995663889873E-006
 abs          28           9  0.19970439222681102        1.4694312607840820E-003   7.0037562031179590E-004  0.19950000000000001        2.0327768162820207E-004   6.2583855144736614E-011   1.1144825989576096E-006
 abs          28          10  0.28514414581800962        1.2668301140061865E-003   6.0036154814361469E-004  0.28499999999999998        1.4324736114902650E-004   6.7835650079601650E-011   8.9838902501250776E-007
 abs          28          11  0.35130167309496479        9.6322853581516427E-004   4.5034206363031657E-004  0.35120000000000001        1.0094470928535412E-004   7.0300591860637746E-011   7.2831537885201060E-007
 abs          28          12  0.45597173099636995        7.6162782740656803E-004   3.5033340384132023E-004  0.45590000000000003        7.1134534353507108E-005   2.0382165132706843E-010   5.9625819477444824E-007
 abs          28          13  0.64335060989295789        7.5982700439723337E-004   3.5032366148879613E-004  0.64329999999999998        5.0127659126603100E-005   2.5022714472153799E-011   4.8220880852564439E-007
 abs          29           1   9.6472990563941947E-003   7.6744586086834573E-003   3.8004028087983521E-003   6.3000000000000000E-003   3.3428303324028468E-003   1.5393393342110672E-009   4.4671846520136889E-006
 abs          29           2   7.4592605456353309E-003   5.8700787102226211E-003   2.9003791141478785E-003   5.1000000000000004E-003   2.3556527211947339E-003   1.9597051476897029E-009   3.6058647354489577E-006
 abs          29           3   9.9628638307965485E-003   4.5620493916491258E-003   2.2503356757042361E-003   8.3000000000000001E-003   1.6600004161394059E-003   2.0806970292875219E-009   2.8613339601133432E-006
 abs          29           4   1.3072120060356842E-002   3.6635092897323116E-003   1.8003435737094110E-003   1.1900000000000001E-002   1.1697825221815472E-003   1.7553507118397194E-009   2.3357828245823213E-006
 abs          29           5   2.2326216308611202E-002   2.9605896969421269E-003   1.4503277783837812E-003   2.1499999999999998E-002   8.2433181094245303E-004   1.2727664314294125E-009   1.8832249023194963E-006
 abs          29           6   4.1282415877298057E-002   2.3573781222168818E-003   1.1503104032614946E-003   4.0700000000000000E-002   5.8089680914740491E-004   8.0931467373028780E-010   1.5182588359785086E-006
 abs          29           7   5.5410588104524025E-002   1.9547506041552101E-003   9.5029618763270234E-004   5.5000000000000000E-002   4.0935106276178076E-004   5.3672947831342384E-010   1.2365050327632662E-006
 abs          29           8   8.5189475372137557E-002   1.6527068283149063E-003   8.0028513056257277E-004   8.4900000000000003E-002   2.8846481844192452E-004   3.2762400067010820E-010   1.0102260716318539E-006
 abs          29           9  0.19970409116352658        1.4506629701349664E-003   7.0027407332552759E-004  0.19950000000000001        2.0327772185889530E-004   2.9727184164132080E-010   8.1314439580772045E-007
 abs          29          10  0.28514390319077199        1.2487650495724236E-003   6.0026380574574819E-004  0.28499999999999998        1.4324738949911687E-004   3.2221774420036443E-010   6.5547905514841389E-007
 abs          29          11  0.35130147645378207        9.4613720542517090E-004   4.5024958922630859E-004  0.35120000000000001        1.0094472926332514E-004   3.3392615975087012E-010   5.3139059259247803E-007
 abs          29          12  0.45597157055613097        7.4496924148899379E-004   3.5024327074800987E-004  0.45590000000000003        7.1134548431745330E-005   9.6814805537700300E-010   4.3503955107845724E-007
 abs          29          13  0.64335047961519254        7.4365515832550242E-004   3.5023616203288578E-004  0.64329999999999998        5.0127669047369911E-005   1.1885730587863412E-010   3.5182728795271206E-007
 abs          30           1   9.6448189234745307E-003   7.6331478004711302E-003   3.8001793262337855E-003   6.3000000000000000E-003   3.3428297242535311E-003   4.2221989518017215E-010   1.9887770011053072E-006
 abs          30           2   7.4572581501573133E-003   5.8311979352578050E-003   2.9001687776276080E-003   5.1000000000000004E-003   2.3556522926391544E-003   5.3752053472060323E-010   1.6053199976242185E-006
 abs          30           3   9.9612745420124670E-003   4.5276233182129271E-003   2.2501494389959801E-003   8.3000000000000001E-003   1.6600001141413934E-003   5.7070696634782113E-010   1.2738571641066675E-006
 abs          30           4   1.3070822674235301E-002   3.6282732546132411E-003   1.8001529551399868E-003   1.1900000000000001E-002   1.1697823093671446E-003   4.8146888544055369E-010   1.0398833992707490E-006
 abs          30           5   2.2325170416067901E-002   2.9269734375959419E-003   1.4501459230397830E-003   2.1499999999999998E-002   8.2433166097467818E-004   3.4910256453778395E-010   8.3840599066204139E-007
 abs          30           6   4.1281572849660463E-002   2.3255436326626681E-003   1.1501381876571216E-003   4.0700000000000000E-002   5.8089670346690009E-004   2.2198403504403905E-010   6.7592420952598682E-007
 abs          30           7   5.5409901623782093E-002   1.9243738290133292E-003   9.5013185881199656E-004   5.5000000000000000E-002   4.0935098828998772E-004   1.4721761410049791E-010   5.5048827448895272E-007
 abs          30           8   8.5188914605395544E-002   1.6234639404006941E-003   8.0012693624799630E-004   8.4900000000000003E-002   2.8846476596253894E-004   8.9862818513851251E-011   4.4974957018459891E-007
 abs          30           9  0.19970363977582331        1.4225540292034137E-003   7.0012201363821335E-004  0.19950000000000001        2.0327768487729732E-004   8.1537633079546374E-011   3.6200940837112946E-007
 abs          30          10  0.28514353926909747        1.2217090973309030E-003   6.0011744260353894E-004  0.28499999999999998        1.4324736343862522E-004   8.8379955710801886E-011   2.9181727892035392E-007
 abs          30          11  0.35130118137596356        9.2053920424071305E-004   4.5011111351412144E-004  0.35120000000000001        1.0094471089880708E-004   9.1591415248405375E-011   2.3657347333409537E-007
 abs          30          12  0.45597132847932353        7.2001924264875972E-004   3.5010830057857545E-004  0.45590000000000003        7.1134535490488188E-005   2.6554987673959923E-010   1.9367828311417696E-007
 abs          30          13  0.64335028432496577        7.1943425191890037E-004   3.5010513590895550E-004  0.64329999999999998        5.0127659927820130E-005   3.2600946467202776E-011   1.5663243701515656E-007
 abs          31           1   9.6448154753156663E-003   7.6330903311706885E-003   3.8001790153248749E-003   6.3000000000000000E-003   3.3428297242531872E-003   4.2221926396390717E-010   1.9853288432148690E-006
 abs          31           2   7.4572553668392780E-003   5.8311438465044399E-003   2.9001684850074568E-003   5.1000000000000004E-003   2.3556522926389124E-003   5.3751973113055878E-010   1.6025366806342242E-006
 abs          31           3   9.9612723333874342E-003   4.5275754271289995E-003   2.2501491799052208E-003   8.3000000000000001E-003   1.6600001141412225E-003   5.7070611314425602E-010   1.2716485400984129E-006
 abs          31           4   1.3070820871276088E-002   3.6282242366803157E-003   1.8001526899529743E-003   1.1900000000000001E-002   1.1697823093670243E-003   4.8146816564739610E-010   1.0380804408966636E-006
 abs          31           5   2.2325168962432106E-002   2.9269266733609285E-003   1.4501456700452763E-003   2.1499999999999998E-002   8.2433166097459340E-004   3.4910204263149909E-010   8.3695235547293508E-007
 abs          31           6   4.1281571677737119E-002   2.3254993474953671E-003   1.1501379480743715E-003   4.0700000000000000E-002   5.8089670346684035E-004   2.2198370317920965E-010   6.7475228658283131E-007
 abs          31           7   5.5409900669340734E-002   1.9243315721741015E-003   9.5013163020250173E-004   5.5000000000000000E-002   4.0935098828994560E-004   1.4721739401102902E-010   5.4953383339967134E-007
 abs          31           8   8.5188913825615886E-002   1.6234232611500297E-003   8.0012671617325575E-004   8.4900000000000003E-002   2.8846476596250929E-004   8.9862684169465073E-011   4.4896979068780701E-007
 abs          31           9  0.19970363914816827        1.4225149275413466E-003   7.0012180209822698E-004  0.19950000000000001        2.0327768487727642E-004   8.1537511181263514E-011   3.6138175348715097E-007
 abs          31          10  0.28514353876314213        1.2216714605725546E-003   6.0011723898868166E-004  0.28499999999999998        1.4324736343861050E-004   8.8379823583286891E-011   2.9131132372662622E-007
 abs          31          11  0.35130118096579038        9.2050359581057181E-004   4.5011092087251977E-004  0.35120000000000001        1.0094471089879670E-004   9.1591278319777237E-011   2.3616330030399094E-007
 abs          31          12  0.45597132814352209        7.1998453569783517E-004   3.5010811281397628E-004  0.45590000000000003        7.1134535490480869E-005   2.6554947974409228E-010   1.9334248211700356E-007
 abs          31          13  0.64335028405339512        7.1940055913214535E-004   3.5010495363098425E-004  0.64329999999999998        5.0127659927814973E-005   3.2600897728979155E-011   1.5636086641005995E-007
 abs          32           1   9.6432938400959640E-003   7.6077390949141023E-003   3.8000418685034849E-003   6.3000000000000000E-003   3.3428294944010430E-003   9.4999291642202704E-017   4.6434569482565627E-007
 abs          32           2   7.4560269456539251E-003   5.8072838540368030E-003   2.9000394056503381E-003   5.1000000000000004E-003   2.3556521306648437E-003   1.2094188508053358E-016   3.7481498896057871E-007
 abs          32           3   9.9602974240399766E-003   4.5064492457617851E-003   2.2500348904195703E-003   8.3000000000000001E-003   1.6600000000000258E-003   1.2840881767349619E-016   2.9742403982296939E-007
 abs          32           4   1.3070025024067740E-002   3.6066009927208814E-003   1.8000357113706193E-003   1.1900000000000001E-002   1.1697822289330824E-003   1.0833028852203975E-016   2.4279513454936276E-007
 abs          32           5   2.2324527357871059E-002   2.9062974988027027E-003   1.4500340694685219E-003   2.1499999999999998E-002   8.2433160429375249E-004   7.8547924245525325E-017   1.9575357723042374E-007
 abs          32           6   4.1281054480362032E-002   2.3059636554927051E-003   1.1500322633762148E-003   4.0700000000000000E-002   5.8089666352452690E-004   4.9946310739484883E-017   1.5781683745708580E-007
 abs          32           7   5.5409479489817462E-002   1.9056905109663522E-003   9.5003078566432714E-004   5.5000000000000000E-002   4.0935096014307301E-004   3.3123898746728751E-017   1.2852967435206891E-007
 abs          32           8   8.5188569755023452E-002   1.6054780652236236E-003   8.0002963633285897E-004   8.4900000000000003E-002   2.8846474612774341E-004   2.0219094839537983E-017   1.0500889569259940E-007
 abs          32           9  0.19970336219395621        1.4052656194808899E-003   7.0002848700139082E-004  0.19950000000000001        2.0327767089995313E-004   1.8345931760115935E-017   8.4523056214996907E-008
 abs          32          10  0.28514331548797356        1.2050683484340623E-003   6.0002741976502747E-004  0.28499999999999998        1.4324735358895726E-004   1.9885451357787443E-017   6.8134384632914926E-008
 abs          32          11  0.35130099993985103        9.0479520390768903E-004   4.5002594205313976E-004  0.35120000000000001        1.0094470395786337E-004   2.0608028348338175E-017   5.5235893109980023E-008
 abs          32          12  0.45597117975119322        7.0467380634040976E-004   3.5002528529230081E-004  0.45590000000000003        7.1134530599287814E-005   5.9748606055551089E-017   4.5220593809818811E-008
 abs          32          13  0.64335016422749813        7.0453723407721310E-004   3.5002454643635693E-004  0.64329999999999998        5.0127656481049490E-005   7.3351986881812768E-018   3.6571017141497766E-008
 abs          33           1   9.6430002170599695E-003   7.6028453776496377E-003   3.8000153934930844E-003   6.3000000000000000E-003   3.3428294944009914E-003   2.1374831535192889E-023   1.7072265897827270E-007
 abs          33           2   7.4557899362097998E-003   5.8026780024937764E-003   2.9000144879934913E-003   5.1000000000000004E-003   2.3556521306648073E-003   2.7211912578058086E-023   1.3780554499226585E-007
 abs          33           3   9.9601093517684963E-003   4.5023711480413646E-003   2.2500128279109035E-003   8.3000000000000001E-003   1.6600000000000000E-003   2.8891971697449606E-023   1.0935176849588709E-007
 abs          33           4   1.3069871495682858E-002   3.6024269397599853E-003   1.8000131297441016E-003   1.1900000000000001E-002   1.1697822289330642E-003   2.4374304558380302E-023   8.9266749792560898E-008
 abs          33           5   2.2324403575610760E-002   2.9023153563227442E-003   1.4500125260777060E-003   2.1499999999999998E-002   8.2433160429373970E-004   1.7673275444101711E-023   7.1971317020252215E-008
 abs          33           6   4.1280954686911883E-002   2.3021926145417797E-003   1.1500118620446709E-003   4.0700000000000000E-002   5.8089666352451790E-004   1.1237915140270525E-023   5.8023387365164576E-008
 abs          33           7   5.5409398215728739E-002   1.9020921894482630E-003   9.5001131874491507E-004   5.5000000000000000E-002   4.0935096014306667E-004   7.4528740505427370E-024   4.7255585671436922E-008
 abs          33           8   8.5188503353997039E-002   1.6020140810421948E-003   8.0001089617843830E-004   8.4900000000000003E-002   2.8846474612773896E-004   4.5492944054460717E-024   3.8607869285282588E-008
 abs          33           9  0.19970330874688724        1.4019359726361261E-003   7.0001047361196143E-004  0.19950000000000001        2.0327767089994999E-004   4.1278328916972395E-024   3.1075987271535257E-008
 abs          33          10  0.28514327240407056        1.2018634434019196E-003   6.0001008122880439E-004  0.28499999999999998        1.4324735358895504E-004   4.4742246539568397E-024   2.5050481660537402E-008
 abs          33          11  0.35130096501214347        9.0176301830840306E-004   4.5000953792904844E-004  0.35120000000000001        1.0094470395786181E-004   4.6368044077343652E-024   2.0308185577807600E-008
 abs          33          12  0.45597115115653142        7.0171838493350677E-004   3.5000929646249027E-004  0.45590000000000003        7.1134530599286717E-005   1.3443430649041395E-023   1.6625932148864463E-008
 abs          33          13  0.64335014110228517        7.0166817238674845E-004   3.5000902481261228E-004  0.64329999999999998        5.0127656481048711E-005   1.6504190034127636E-024   1.3445804187504483E-008
 abs          34           1   9.6429022446267183E-003   7.6012125037621236E-003   3.8000065596453529E-003   6.3000000000000000E-003   3.3428294944009914E-003   3.4199720059594449E-030   7.2750225727411892E-008
 abs          34           2   7.4557108538862273E-003   5.8011411800114104E-003   2.9000061737838615E-003   5.1000000000000004E-003   2.3556521306648073E-003   4.3539046889023576E-030   5.8723221420492603E-008
 abs          34           3   9.9600465981837995E-003   4.5010104198017695E-003   2.2500054663711273E-003   8.3000000000000001E-003   1.6600000000000000E-003   4.6227140662869577E-030   4.6598183799257292E-008
 abs          34           4   1.3069820268266780E-002   3.6010341943853406E-003   1.8000055949916247E-003   1.1900000000000001E-002   1.1697822289330642E-003   3.8998875437751150E-030   3.8039333713679426E-008
 abs          34           5   2.2324362273506548E-002   2.9009866452181982E-003   1.4500053377506303E-003   2.1499999999999998E-002   8.2433160429373970E-004   2.8277232114284753E-030   3.0669212806654036E-008
 abs          34           6   4.1280921389091431E-002   2.3009343411343423E-003   1.1500050547855367E-003   4.0700000000000000E-002   5.8089666352451790E-004   1.7980658758312948E-030   2.4725566913891623E-008
 abs          34           7   5.5409371097215353E-002   1.9008915468839143E-003   9.5000482326864201E-004   5.5000000000000000E-002   4.0935096014306667E-004   1.1924594855791793E-030   2.0137072284679045E-008
 abs          34           8   8.5188481198139585E-002   1.6008582624669149E-003   8.0000464319994610E-004   8.4900000000000003E-002   2.8846474612773896E-004   7.2788688359377379E-031   1.6452011831166350E-008
 abs          34           9  0.19970329091334302        1.4008249780499153E-003   7.0000446313124999E-004  0.19950000000000001        2.0327767089994999E-004   6.6045306189384129E-031   1.3242443049074648E-008
 abs          34          10  0.28514325802837692        1.2007940710912729E-003   6.0000429592460373E-004  0.28499999999999998        1.4324735358895504E-004   7.1587572700688817E-031   1.0674788023401288E-008
 abs          34          11  0.35130095335790634        9.0075127684084515E-004   4.5000406440770898E-004  0.35120000000000001        1.0094470395786181E-004   7.4188847970341559E-031   8.6539484198620683E-009
 abs          34          12  0.45597114161542518        7.0073225717398829E-004   3.5000396151131126E-004  0.45590000000000003        7.1134530599286717E-005   2.1509482499584006E-030   7.0848259041727922E-009
 abs          34          13  0.64335013338615565        7.0071086004877439E-004   3.5000384575286389E-004  0.64329999999999998        5.0127656481048711E-005   2.6406696026969180E-031   5.7296746406229627E-009
 abs          35           1   9.6428654146424909E-003   7.6005986706916733E-003   3.8000032388084419E-003   6.3000000000000000E-003   3.3428294944009914E-003   4.9247589794163098E-037   3.5920241500414255E-008
 abs          35           2   7.4556811251081101E-003   5.8005634547686332E-003   2.9000030482902979E-003   5.1000000000000004E-003   2.3556521306648073E-003   6.2696218491938505E-037   2.8994443302621960E-008
 abs          35           3   9.9600230077363863E-003   4.5004988922430610E-003   2.2500026990070346E-003   8.3000000000000001E-003   1.6600000000000000E-003   6.6567072968873704E-037   2.3007736385886256E-008
 abs          35           4   1.3069801010758686E-002   3.6005106308840745E-003   1.8000027625130828E-003   1.1900000000000001E-002   1.1697822289330642E-003   5.6158372543556029E-037   1.8781825621131639E-008
 abs          35           5   2.2324346747140646E-002   2.9004871536020480E-003   1.4500026355009871E-003   2.1499999999999998E-002   8.2433160429373970E-004   4.0719208381004064E-037   1.5142846907037383E-008
 abs          35           6   4.1280908871711174E-002   2.3004613285918189E-003   1.1500024957876818E-003   4.0700000000000000E-002   5.8089666352451790E-004   2.5892144883501798E-037   1.2208186653735564E-008
 abs          35           7   5.5409360902772001E-002   1.9004401990379953E-003   9.5000238147679560E-004   5.5000000000000000E-002   4.0935096014306667E-004   1.7171414119656556E-037   9.9426289381865606E-009
 abs          35           8   8.5188472869267326E-002   1.6004237649405769E-003   8.0000229256832857E-004   8.4900000000000003E-002   2.8846474612773896E-004   1.0481569614404319E-037   8.1231395811394325E-009
 abs          35           9  0.19970328420932301        1.4004073308431582E-003   7.0000220365986146E-004  0.19950000000000001        2.0327767089994999E-004   9.5105227217560400E-038   6.5384230443564507E-009
 abs          35          10  0.28514325262423873        1.2003920706098411E-003   6.0000212110199918E-004  0.28499999999999998        1.4324735358895504E-004   1.0308608984459503E-037   5.2706498149300655E-009
 abs          35          11  0.35130094897682324        9.0037094105601735E-004   4.5000200679111305E-004  0.35120000000000001        1.0094470395786181E-004   1.0683192569349462E-037   4.2728653288074471E-009
 abs          35          12  0.45597113802871431        7.0036155014320675E-004   3.5000195598627475E-004  0.45590000000000003        7.1134530599286717E-005   3.0973650339195327E-037   3.4981150219357669E-009
 abs          35          13  0.64335013048549350        7.0035098536629494E-004   3.5000189883083166E-004  0.64329999999999998        5.0127656481048711E-005   3.8025636803143944E-038   2.8290124841829525E-009
 ed   5.1488143384456633        6.6259428633583912        8.0747629715336693        8.5091591285334687        8.5177463498380455        8.3535631444719112        8.4502077771557698        8.3198294619719189        7.8907388998402492        7.8268314725822874        7.3970040844546423        6.7449332939253912        3.3241547925604715     
 es   3.8721624715460674        4.4531742923789555        5.0471708933512369        4.9449656413661112        4.6620081279012897        4.3358669622076889        4.2115973141458296        4.0423952798048655        3.7312923898299539        3.6359325677156447        3.4215801950958040        3.0626243280039893        1.5068311421407592     
 PAR   39.580359548684577        52.375761064029845        61.990280034721572        63.756886712953722        60.013113450296423        52.953203063233921        50.522267881841763        42.902899245477151        21.042903595757362        12.921012797893537        8.5196847271491194        4.2718637220859934       0.70637279873185743     
 chl2c           1   3.7477407714772232E-002   3.7477407714772232E-002  0.60826437499999997        4.3794602555054842E-004   1.4240762862193463E-016
 chl           1   3.1515947000230023E-005   8.4093188195104502E-004   3.7477407714772232E-002
 chl2c           2   3.2640259920490348E-002   3.2640259920490348E-002  0.48302390000000001        2.4754875921919684E-004   1.7868558081334884E-006
 chl           2   2.7681368817064564E-005   8.4807439905486856E-004   3.2640259920490348E-002
 chl2c           3   3.7922212503796585E-002   3.7922212503796585E-002  0.75128689999999998        4.3794602555054842E-004   1.5356131644048075E-016
 chl           3   3.1889997528566401E-005   8.4093188195107907E-004   3.7922212503796585E-002
 chl2c           4   3.7976509103863923E-002   3.7976509103863923E-002  0.77318742499999993        4.3794602555054842E-004   2.2204786119344529E-006
 chl           4   3.2191493627254758E-005   8.4766858215463081E-004   3.7976509103863923E-002
 chl2c           5   2.5710500362372445E-002   2.5710500362372445E-002  0.48489679999999996        3.3547219182915447E-004   2.8207427785693585E-006
 chl           5   2.1876678236063319E-005   8.5088496636495019E-004   2.5710500362372445E-002
 chl2c           6   3.1261039902252048E-002   3.1261039902252048E-002  0.29222855000000003        2.4754875921919684E-004   1.0219675911302831E-016
 chl           6   2.6343497207542501E-005   8.4269420626806194E-004   3.1261039902252048E-002
 chl2c           7   4.3064391842467263E-002   4.3064391842467263E-002  0.22770740000000000        1.5468181452707639E-004   1.3031970687693238E-006
 chl           7   3.6459442388400859E-005   8.4662619924535801E-004   4.3064391842467263E-002
 chl2c           8   4.7969800906495587E-002   4.7969800906495587E-002  0.49578364999999996        1.5468181452707639E-004   7.3517770008468882E-017
 chl           8   4.0423873299732072E-005   8.4269420626797466E-004   4.7969800906495587E-002
 chl2c           9   2.4803669054600401E-002   2.4803669054600401E-002  0.28700202499999999        3.3547219182915447E-004   1.3649783477930028E-016
 chl           9   2.0901908882777811E-005   8.4269423353320705E-004   2.4803669054600401E-002
 chl2c          10   2.5387016219684602E-002   2.5387016219684602E-002  0.39094662499999999        3.3547219182915447E-004   3.4252857042404001E-006
 chl          10   2.1636410868656833E-005   8.5226285284681780E-004   2.5387016219684602E-002
 chl2c          11   2.1820572217820047E-002   2.1820572217820047E-002  0.49737575000000001        4.3794602555054842E-004   1.4140450375728865E-016
 chl          11   1.8388069785413397E-005   8.4269420626818152E-004   2.1820572217820047E-002
 chl2c          12   4.5290941298723353E-002   4.5290941298723353E-002  0.30768942500000002        1.5468181452707639E-004   7.2892462670537467E-017
 chl          12   3.8166413828857026E-005   8.4269420626797281E-004   4.5290941298723353E-002
 chl2c          13   3.7935816987997487E-002   3.7935816987997487E-002  0.75666275000000005        4.3794602555054842E-004   1.2772698306554388E-016
 chl          13   3.1901437970588742E-005   8.4093188188571349E-004   3.7935816987997487E-002
 chl2c          14   4.6856526101924839E-002   4.6856526101924839E-002  0.39804095000000000        1.5468181452707639E-004   8.0960913191128690E-017
 chl          14   3.9485723071937251E-005   8.4269420626799732E-004   4.6856526101924839E-002
 chl2c          15   2.0954299823745293E-002   2.0954299823745293E-002  0.25607262500000000        4.3794602555054842E-004   3.9271993959508748E-006
 chl          15   1.7884591867737902E-005   8.5350462760254984E-004   2.0954299823745293E-002
 chl2c          16   3.7823443882273475E-002   3.7823443882273475E-002  0.71433214999999994        4.3794602555054842E-004   1.5985465772736029E-016
 chl          16   3.1806939845791985E-005   8.4093188195109826E-004   3.7823443882273475E-002
 chl2c          17   3.7542254757581245E-002   3.7542254757581245E-002  0.62580860000000005        4.3794602555054842E-004   1.5977474901096454E-016
 chl          17   3.1570478945980360E-005   8.4093188195109804E-004   3.7542254757581245E-002
 chl2c          18   2.5694475239060960E-002   2.5694475239060960E-002  0.47925950000000000        3.3547219182915447E-004   1.4760673939778491E-016
 chl          18   2.1652585417058405E-005   8.4269420626820039E-004   2.5694475239060960E-002
 chl2c          19   3.7570220750293731E-002   3.7570220750293731E-002  0.63367130000000005        4.3794602555054842E-004   7.8835248132238089E-007
 chl          19   3.1683570369349280E-005   8.4331605555183146E-004   3.7570220750293731E-002
 chl2c          20   3.7020645196759419E-002   3.7020645196759419E-002  0.50678202500000002        4.3794602555054842E-004   1.4063056894775407E-016
 chl          20   3.1131840833935658E-005   8.4093188188575285E-004   3.7020645196759419E-002
 chl2c          21   3.7838475073783531E-002   3.7838475073783531E-002  0.71973185000000006        4.3794602555054842E-004   1.8830620908084001E-008
 chl          21   3.1821334387377406E-005   8.4097824569639924E-004   3.7838475073783531E-002
 chl2c          22   3.7613353106285476E-002   3.7613353106285476E-002  0.64616892500000001        4.3794602555054842E-004   3.4870833172531226E-006
 chl          22   3.2025981563804499E-005   8.5145244757380369E-004   3.7613353106285476E-002
 chl2c          23   3.2286562315070731E-002   3.2286562315070731E-002  0.41564179999999995        2.4754875921919684E-004   9.6375343235223159E-017
 chl          23   2.7207699003222280E-005   8.4269420626804426E-004   3.2286562315070731E-002
 chl2c          24   3.7348402796863071E-002   3.7348402796863071E-002  0.57597492500000003        4.3794602555054842E-004   1.1418961632340006E-016
 chl          24   3.1407462649390172E-005   8.4093188188567229E-004   3.7348402796863071E-002
 chl2c          25   4.5426679235459781E-002   4.5426679235459781E-002  0.31406487500000002        1.5468181452707639E-004   7.6595195198128374E-017
 chl          25   3.8280799401716094E-005   8.4269420626798409E-004   4.5426679235459781E-002
 chl2c          26   4.7955660680174553E-002   4.7955660680174553E-002  0.49427735000000000        1.5468181452707639E-004   7.0417625146410047E-017
 chl          26   4.0411957412935556E-005   8.4269420626796512E-004   4.7955660680174553E-002
 chl2c          27   4.5333133499525620E-002   4.5333133499525620E-002  0.30964730000000001        1.5468181452707639E-004   8.0346425844160441E-017
 chl          27   3.8201968952023816E-005   8.4269420626799547E-004   4.5333133499525620E-002
 chl2c          28   3.1209236063453518E-002   3.1209236063453518E-002  0.28776342500000002        2.4754875921919684E-004   7.9908261668172558E-017
 chl          28   2.6299842412722421E-005   8.4269420626799417E-004   3.1209236063453518E-002
 chl2c          29   3.7743217595736761E-002   3.7743217595736761E-002  0.68676297499999994        4.3794602555054842E-004   3.3977380551542805E-006
 chl          29   3.2127192363192628E-005   8.5120438610463138E-004   3.7743217595736761E-002
 chl2c          30   2.5380056985171612E-002   2.5380056985171612E-002  0.38930277499999999        3.3547219182915447E-004   1.6181556888181818E-016
 chl          30   2.1387626976161984E-005   8.4269420626824365E-004   2.5380056985171612E-002
 chl2c          31   3.7576959810037038E-002   3.7576959810037038E-002  0.63559385000000002        4.3794602555054842E-004   3.6237095203771363E-006
 chl          31   3.2010171976466136E-005   8.5185635395431921E-004   3.7576959810037038E-002
 chl2c          32   2.0893126428578448E-002   2.0893126428578448E-002  0.24722667500000001        4.3794602555054842E-004   3.3591721194034373E-006
 chl          32   1.7805994760137449E-005   8.5224175620656276E-004   2.0893126428578448E-002
 chl2c          33   3.7458922634011876E-002   3.7458922634011876E-002  0.60343137499999999        4.3794602555054842E-004   1.1010202313538549E-006
 chl          33   3.1625335723332763E-005   8.4426709311222041E-004   3.7458922634011876E-002
 chl2c          34   2.5350269098008315E-002   2.5350269098008315E-002  0.38241020000000003        3.3547219182915447E-004   2.7360264750891220E-006
 chl          34   2.1564442563016001E-005   8.5065931567212627E-004   2.5350269098008315E-002
 chl2c          35   2.5740370148566064E-002   2.5740370148566064E-002  0.49574644999999995        3.3547219182915447E-004   1.1683767001362594E-016
 chl          35   2.1691260791393149E-005   8.4269420626810682E-004   2.5740370148566064E-002
 chl2c          36   3.7770393924465726E-002   3.7770393924465726E-002  0.69587337500000002        4.3794602555054842E-004   1.2167608381631508E-016
 chl          36   3.1762328444930899E-005   8.4093188195098192E-004   3.7770393924465726E-002
 chl2c          37   2.1353674699533250E-002   2.1353674699533250E-002  0.33194060000000003        4.3794602555054842E-004   1.0697601876173393E-016
 chl          37   1.7994617951829885E-005   8.4269420626807679E-004   2.1353674699533250E-002
 chl2c          38   2.1543295686358745E-002   2.1543295686358745E-002  0.38455722500000000        4.3794602555054842E-004   1.6517325199545776E-016
 chl          38   1.8154410458818385E-005   8.4269420626825406E-004   2.1543295686358745E-002
 chl2c          39   2.5670077108751441E-002   2.5670077108751441E-002  0.47091117500000002        3.3547219182915447E-004   1.3295575794632049E-016
 chl          39   2.1632025254001654E-005   8.4269420626815594E-004   2.5670077108751441E-002
 chl2c          40   3.7687445774703773E-002   3.7687445774703773E-002  0.66875547499999999        4.3794602555054842E-004   1.6016318653327827E-016
 chl          40   3.1692574701251649E-005   8.4093188195109923E-004   3.7687445774703773E-002
 chl2c          41   2.5582381488167241E-002   2.5582381488167241E-002  0.44304987499999998        3.3547219182915447E-004   9.6328098998060210E-017
 chl          41   2.1558124662617403E-005   8.4269420626804437E-004   2.5582381488167241E-002
 chl2c          42   3.7949995630725070E-002   3.7949995630725070E-002  0.76234377499999995        4.3794602555054842E-004   1.3510469223963832E-016
 chl          42   3.1913361243301092E-005   8.4093188188573594E-004   3.7949995630725070E-002
 chl2c          43   2.1185090152268007E-002   2.1185090152268007E-002  0.29539925000000000        4.3794602555054842E-004   1.6446553699918655E-016
 chl          43   1.7852552730586847E-005   8.4269420626825189E-004   2.1185090152268007E-002
 chl2c          44   3.7536352708156646E-002   3.7536352708156646E-002  0.62417262500000004        4.3794602555054842E-004   1.1542365603144923E-016
 chl          44   3.1565515721994664E-005   8.4093188188567609E-004   3.7536352708156646E-002
 chl2c          45   4.6544927192009838E-002   4.6544927192009838E-002  0.37662252499999999        1.5468181452707639E-004   1.8787412476189023E-006
 chl          45   3.9484074510198186E-005   8.4830027442767695E-004   4.6544927192009838E-002
 chl2c          46   3.7083195475449568E-002   3.7083195475449568E-002  0.51876034999999998        4.3794602555054842E-004   3.6423281374757853E-006
 chl          46   3.1591220191215789E-005   8.5190123952857120E-004   3.7083195475449568E-002
 chl2c          47   3.7519784612651236E-002   3.7519784612651236E-002  0.61962282499999999        4.3794602555054842E-004   1.4739642483560638E-016
 chl          47   3.1551583082265688E-005   8.4093188188577345E-004   3.7519784612651236E-002
 chl2c          48   3.7823212136301673E-002   3.7823212136301673E-002  0.71424949999999998        4.3794602555054842E-004   1.4175496969730175E-016
 chl          48   3.1806744960744337E-005   8.4093188188575621E-004   3.7823212136301673E-002
 chl2c          49   3.7152990741888416E-002   3.7152990741888416E-002  0.53276120000000005        4.3794602555054842E-004   1.3192249709913087E-016
 chl          49   3.1243134422259191E-005   8.4093188188572629E-004   3.7152990741888416E-002
 chl2c          50   2.1533072915600981E-002   2.1533072915600981E-002  0.38132569999999999        4.3794602555054842E-004   1.3737318755647257E-006
 chl          50   1.8235240692666374E-005   8.4684804459351983E-004   2.1533072915600981E-002
 chl2c          51   2.0700971146093840E-002   2.0700971146093840E-002  0.22275920000000002        4.3794602555054842E-004   1.7555092598026905E-016
 chl          51   1.7444588448940231E-005   8.4269420626828561E-004   2.0700971146093840E-002
 chl2c          52   3.7581825176985564E-002   3.7581825176985564E-002  0.63698869999999996        4.3794602555054842E-004   1.5686448731986547E-016
 chl          52   3.1603754973239296E-005   8.4093188195108915E-004   3.7581825176985564E-002
 chl2c          53   3.7925801262726190E-002   3.7925801262726190E-002  0.75269794999999995        4.3794602555054842E-004   1.4047964796734243E-016
 chl          53   3.1893015430365435E-005   8.4093188195103917E-004   3.7925801262726190E-002
 chl2c          54   3.7082433371327092E-002   3.7082433371327092E-002  0.51861124999999997        4.3794602555054842E-004   1.1523825600059136E-016
 chl          54   3.1183800479850261E-005   8.4093188188567544E-004   3.7082433371327092E-002
 chl2c          55   3.7357235588660491E-002   3.7357235588660491E-002  0.57808280000000001        4.3794602555054842E-004   3.5681686804652920E-006
 chl          55   3.1816602630279122E-005   8.5168514556619953E-004   3.7357235588660491E-002
 chl2c          56   3.7507394187257688E-002   3.7507394187257688E-002  0.61626080000000005        4.3794602555054842E-004   1.5727896897940144E-016
 chl          56   3.1541163580971998E-005   8.4093188195109045E-004   3.7507394187257688E-002
 chl2c          57   3.7727617852646313E-002   3.7727617852646313E-002  0.68163462500000005        4.3794602555054842E-004   3.7864278742307974E-006
 chl          57   3.2156223926034862E-005   8.5232584923936136E-004   3.7727617852646313E-002
 chl2c          58   3.7765358178394853E-002   3.7765358178394853E-002  0.69416802499999997        4.3794602555054842E-004   5.0713286762693407E-007
 chl          58   3.1815713234542146E-005   8.4245760583686366E-004   3.7765358178394853E-002
 chl2c          59   3.7173699120809672E-002   3.7173699120809672E-002  0.53705127500000005        4.3794602555054842E-004   1.5998770168673921E-016
 chl          59   3.1260548758319427E-005   8.4093188188581183E-004   3.7173699120809672E-002
 chl2c          60   3.7607757740906807E-002   3.7607757740906807E-002  0.64452155000000000        4.3794602555054842E-004   1.1798430922630280E-007
 chl          60   3.1638664729860997E-005   8.4128027381560444E-004   3.7607757740906807E-002
 chl2c          61   3.7805373434125003E-002   3.7805373434125003E-002  0.70794139999999994        4.3794602555054842E-004   1.3748738448645985E-016
 chl          61   3.1791743827352022E-005   8.4093188188574320E-004   3.7805373434125003E-002
 chl2c          62   3.7956103087269030E-002   3.7956103087269030E-002  0.76481592499999995        4.3794602555054842E-004   1.1221060329212866E-016
 chl          62   3.1918497198223492E-005   8.4093188188566622E-004   3.7956103087269030E-002
 chl2c          63   3.7855601011927406E-002   3.7855601011927406E-002  0.72597904999999996        4.3794602555054842E-004   1.5712433390071634E-006
 chl          63   3.2014532498284293E-005   8.4570133989412221E-004   3.7855601011927406E-002
 chl2c          64   2.5708982294816416E-002   2.5708982294816416E-002  0.48435739999999999        3.3547219182915447E-004   9.3722288112097556E-017
 chl          64   2.1664810428889323E-005   8.4269420626803646E-004   2.5708982294816416E-002
 chl2c          65   3.7953597170552002E-002   3.7953597170552002E-002  0.76379975000000000        4.3794602555054842E-004   1.2398166986384156E-016
 chl          65   3.1916389895442020E-005   8.4093188195098886E-004   3.7953597170552002E-002
 chl2c          66   3.1840477731474713E-002   3.1840477731474713E-002  0.35213202499999996        2.4754875921919684E-004   7.6203456709128613E-017
 chl          66   2.6831786109118468E-005   8.4269420626798290E-004   3.1840477731474713E-002
 chl2c          67   3.7937587124568600E-002   3.7937587124568600E-002  0.75736760000000003        4.3794602555054842E-004   1.3117241835014150E-016
 chl          67   3.1902926534867086E-005   8.4093188188572401E-004   3.7937587124568600E-002
 chl2c          68   3.7855407263856986E-002   3.7855407263856986E-002  0.72590779999999999        4.3794602555054842E-004   2.2880003341641296E-007
 chl          68   3.1859581336040857E-005   8.4161243105840961E-004   3.7855407263856986E-002
 chl2c          69   2.1732330561541505E-002   2.1732330561541505E-002  0.45524217500000003        4.3794602555054842E-004   2.8339981322330834E-006
 chl          69   1.8494838434548612E-005   8.5102876482460186E-004   2.1732330561541505E-002
 chl2c          70   3.2658010878182209E-002   3.2658010878182209E-002  0.48694062500000002        2.4754875921919684E-004   9.6021137515250799E-017
 chl          70   2.7520716555282877E-005   8.4269420626804318E-004   3.2658010878182209E-002
 chl2c          71   4.3481058864416305E-002   4.3481058864416305E-002  0.23986107500000001        1.5468181452707639E-004   8.3848786055903442E-017
 chl          71   3.6641236387441750E-005   8.4269420626800610E-004   4.3481058864416305E-002
 chl2c          72   3.7549776402781669E-002   3.7549776402781669E-002  0.62790522500000001        4.3794602555054842E-004   1.5777510816372562E-016
 chl          72   3.1576804137233889E-005   8.4093188195109186E-004   3.7549776402781669E-002
 chl2c          73   3.1852614277819484E-002   3.1852614277819484E-002  0.35362212500000001        2.4754875921919684E-004   9.2437689498066185E-017
 chl          73   2.6842013506408880E-005   8.4269420626803223E-004   3.1852614277819484E-002
 chl2c          74   3.7616827685877569E-002   3.7616827685877569E-002  0.64719590000000005        4.3794602555054842E-004   1.1067255144577417E-007
 chl          74   3.1645386731420155E-005   8.4125612599971421E-004   3.7616827685877569E-002
 chl2c          75   3.7826830779512356E-002   3.7826830779512356E-002  0.71554212500000003        4.3794602555054842E-004   1.2440278165816610E-016
 chl          75   3.1809787995656966E-005   8.4093188195099016E-004   3.7826830779512356E-002
 chl2c          76   3.7257729557919804E-002   3.7257729557919804E-002  0.55513977500000000        4.3794602555054842E-004   3.3923267115373100E-006
 chl          76   3.1713108145989037E-005   8.5118198350462400E-004   3.7257729557919804E-002
 chl2c          77   3.7138172437479272E-002   3.7138172437479272E-002  0.52973029999999999        4.3794602555054842E-004   1.0932120941027808E-016
 chl          77   3.1230673237643501E-005   8.4093188188565744E-004   3.7138172437479272E-002
 chl2c          78   4.7515248899399322E-002   4.7515248899399322E-002  0.45117492500000000        1.5468181452707639E-004   2.4519450739664215E-006
 chl          78   4.0377953599439684E-005   8.4978937361622736E-004   4.7515248899399322E-002
 prod   4.0125086936974259E-007   471.55660864285682        10.000000000000000     
 chl2c           1   3.7477407714772232E-002   3.7477407714772232E-002  0.60826437499999997        3.3958426171164864E-004   1.5013624449375492E-016
 chl           1   3.2001771976185099E-005   8.5389502443017600E-004   3.7477407714772232E-002
 chl2c           2   3.2640259920490348E-002   3.2640259920490348E-002  0.48302390000000001        1.8989050783320045E-004   1.7701817462498327E-006
 chl           2   2.8044973030003821E-005   8.5921414530152761E-004   3.2640259920490348E-002
 chl2c           3   3.7922212503796585E-002   3.7922212503796585E-002  0.75128689999999998        3.3958426171164864E-004   1.6180111457127235E-016
 chl           3   3.2381588572377075E-005   8.5389502443021200E-004   3.7922212503796585E-002
 chl2c           4   3.7976509103863923E-002   3.7976509103863923E-002  0.77318742499999993        3.3958426171164864E-004   2.4783842669179484E-006
 chl           4   3.2716857720045138E-005   8.6150250489232987E-004   3.7976509103863923E-002
 chl2c           5   2.5710500362372445E-002   2.5710500362372445E-002  0.48489679999999996        2.2701588876900298E-004   2.9419688185828702E-006
 chl           5   2.2156163942058140E-005   8.6175545515574216E-004   2.5710500362372445E-002
 chl2c           6   3.1261039902252048E-002   3.1261039902252048E-002  0.29222855000000003        1.8989050783320045E-004   1.0207588639011300E-016
 chl           6   2.6694400354858514E-005   8.5391914147217628E-004   3.1261039902252048E-002
 chl2c           7   4.3064391842467263E-002   4.3064391842467263E-002  0.22770740000000000        1.2097700202996569E-004   1.3574389568748533E-006
 chl           7   3.6949914529879846E-005   8.5801547285389217E-004   4.3064391842467263E-002
 chl2c           8   4.7969800906495587E-002   4.7969800906495587E-002  0.49578364999999996        1.2097700202996569E-004   7.3418426249337042E-017
 chl           8   4.0962331206661705E-005   8.5391914147208803E-004   4.7969800906495587E-002
 chl2c           9   2.4803669054600401E-002   2.4803669054600401E-002  0.28700202499999999        2.2701588876900298E-004   2.4404995086357323E-008
 chl           9   2.1182206996962046E-005   8.5399490496077749E-004   2.4803669054600401E-002
 chl2c          10   2.9076844439316397E-002   2.5387016219684602E-002  0.39094662499999999        2.2701588876900298E-004   3.5656497686953081E-006
 chl          10   2.5099005574831383E-005   8.6319564790509522E-004   2.9076844439316397E-002
 chl2c          11   2.1820572217820047E-002   2.1820572217820047E-002  0.49737575000000001        3.3958426171164864E-004   1.4828444272192931E-016
 chl          11   1.8633004294675634E-005   8.5391914147231918E-004   2.1820572217820047E-002
 chl2c          12   4.5290941298723353E-002   4.5290941298723353E-002  0.30768942500000002        1.2097700202996569E-004   7.2793835103079575E-017
 chl          12   3.8674801710268494E-005   8.5391914147208607E-004   4.5290941298723353E-002
 chl2c          13   3.7935816987997487E-002   3.7935816987997487E-002  0.75666275000000005        3.3958426171164864E-004   1.3476270436750420E-016
 chl          13   3.2393205371228175E-005   8.5389502436383693E-004   3.7935816987997487E-002
 chl2c          14   4.6856526101924839E-002   4.6856526101924839E-002  0.39804095000000000        1.2097700202996569E-004   8.0860669957844850E-017
 chl          14   4.0011684541321211E-005   8.5391914147211090E-004   4.6856526101924839E-002
 chl2c          15   2.1992581138299046E-002   2.0954299823745293E-002  0.25607262500000000        3.3958426171164864E-004   4.0850043644416972E-006
 chl          15   1.9012606069887480E-005   8.6450089465751347E-004   2.1992581138299046E-002
 chl2c          16   3.7823443882273475E-002   3.7823443882273475E-002  0.71433214999999994        3.3958426171164864E-004   1.6837713058146273E-016
 chl          16   3.2297250537889432E-005   8.5389502443023227E-004   3.7823443882273475E-002
 chl2c          17   3.7542254757581245E-002   3.7542254757581245E-002  0.62580860000000005        3.3958426171164864E-004   1.6829365852939500E-016
 chl          17   3.2057144543390828E-005   8.5389502443023195E-004   3.7542254757581245E-002
 chl2c          18   2.5694475239060960E-002   2.5694475239060960E-002  0.47925950000000000        2.2701588876900298E-004   1.5470572533290609E-016
 chl          18   2.1941004236721209E-005   8.5391914147233902E-004   2.5694475239060960E-002
 chl2c          19   3.7570220750293731E-002   3.7570220750293731E-002  0.63367130000000005        3.3958426171164864E-004   9.4204823572336910E-007
 chl          19   3.2190265469831368E-005   8.5680267049215305E-004   3.7570220750293731E-002
 chl2c          20   3.7020645196759419E-002   3.7020645196759419E-002  0.50678202500000002        3.3958426171164864E-004   1.4827652956686406E-016
 chl          20   3.1611744732253391E-005   8.5389502436387867E-004   3.7020645196759419E-002
 chl2c          21   3.7838475073783531E-002   3.7838475073783531E-002  0.71973185000000006        3.3958426171164864E-004   9.5251647120266411E-008
 chl          21   3.2321219283562883E-005   8.5418926689137921E-004   3.7838475073783531E-002
 chl2c          22   3.7613353106285476E-002   3.7613353106285476E-002  0.64616892500000001        3.3958426171164864E-004   3.7068931357724091E-006
 chl          22   3.2534551669115775E-005   8.6497344645614712E-004   3.7613353106285476E-002
 chl2c          23   3.2286562315070731E-002   3.2286562315070731E-002  0.41564179999999995        1.8989050783320045E-004   9.6251336648820715E-017
 chl          23   2.7570113573172539E-005   8.5391914147215828E-004   3.2286562315070731E-002
 chl2c          24   3.7348402796863071E-002   3.7348402796863071E-002  0.57597492500000003        3.3958426171164864E-004   1.2056594984727544E-016
 chl          24   3.1891615316176155E-005   8.5389502436379312E-004   3.7348402796863071E-002
 chl2c          25   4.5426679235459781E-002   4.5426679235459781E-002  0.31406487500000002        1.2097700202996569E-004   7.6492358931495773E-017
 chl          25   3.8790710932672175E-005   8.5391914147209746E-004   4.5426679235459781E-002
 chl2c          26   4.7955660680174553E-002   4.7955660680174553E-002  0.49427735000000000        1.2097700202996569E-004   7.0321853799229420E-017
 chl          26   4.0950256596740965E-005   8.5391914147207849E-004   4.7955660680174553E-002
 chl2c          27   4.5333133499525620E-002   4.5333133499525620E-002  0.30964730000000001        1.2097700202996569E-004   8.0246814213528312E-017
 chl          27   3.8710830438155423E-005   8.5391914147210906E-004   4.5333133499525620E-002
 chl2c          28   3.1209236063453518E-002   3.1209236063453518E-002  0.28776342500000002        1.8989050783320045E-004   7.9809101600654538E-017
 chl          28   2.6650164065304573E-005   8.5391914147210776E-004   3.1209236063453518E-002
 chl2c          29   3.7743217595736761E-002   3.7743217595736761E-002  0.68676297499999994        3.3958426171164864E-004   3.5551288921866385E-006
 chl          29   3.2631690210496321E-005   8.6457096901516406E-004   3.7743217595736761E-002
 chl2c          30   2.5380056985171612E-002   2.5380056985171612E-002  0.38930277499999999        2.2701588876900298E-004   1.6939242863230290E-016
 chl          30   2.1672516471297938E-005   8.5391914147238445E-004   2.5380056985171612E-002
 chl2c          31   3.7576959810037038E-002   3.7576959810037038E-002  0.63559385000000002        3.3958426171164864E-004   3.7800992256516513E-006
 chl          31   3.2510279583087745E-005   8.6516524347464777E-004   3.7576959810037038E-002
 chl2c          32   2.0893126428578448E-002   2.0893126428578448E-002  0.24722667500000001        3.3958426171164864E-004   3.6220232021158859E-006
 chl          32   1.8041823251694841E-005   8.6352912826950204E-004   2.0893126428578448E-002
 chl2c          33   3.7458922634011876E-002   3.7458922634011876E-002  0.60343137499999999        3.3958426171164864E-004   1.2782870429882584E-006
 chl          33   3.2133768653669853E-005   8.5784017249052166E-004   3.7458922634011876E-002
 chl2c          34   2.5350269098008315E-002   2.5350269098008315E-002  0.38241020000000003        2.2701588876900298E-004   2.8442496783447011E-006
 chl          34   2.1840312551455536E-005   8.6154164545619973E-004   2.5350269098008315E-002
 chl2c          35   2.5740370148566064E-002   2.5740370148566064E-002  0.49574644999999995        2.2701588876900298E-004   1.2278594387726558E-016
 chl          35   2.1980194778441219E-005   8.5391914147224047E-004   2.5740370148566064E-002
 chl2c          36   3.7770393924465726E-002   3.7770393924465726E-002  0.69587337500000002        3.3958426171164864E-004   1.2841951408452740E-016
 chl          36   3.2251951442866496E-005   8.5389502443010889E-004   3.7770393924465726E-002
 chl2c          37   2.1353674699533250E-002   2.1353674699533250E-002  0.33194060000000003        3.3958426171164864E-004   1.1252088340817091E-016
 chl          37   1.8234311566702260E-005   8.5391914147220881E-004   2.1353674699533250E-002
 chl2c          38   2.1543295686358745E-002   2.1543295686358745E-002  0.38455722500000000        3.3958426171164864E-004   1.7285823428588873E-016
 chl          38   1.8396232556981411E-005   8.5391914147239507E-004   2.1543295686358745E-002
 chl2c          39   2.5670077108751441E-002   2.5670077108751441E-002  0.47091117500000002        2.2701588876900298E-004   1.3952691927469067E-016
 chl          39   2.1920170206232565E-005   8.5391914147229196E-004   2.5670077108751441E-002
 chl2c          40   3.7687445774703773E-002   3.7687445774703773E-002  0.66875547499999999        3.3958426171164864E-004   1.6869941124743928E-016
 chl          40   3.2181122430503766E-005   8.5389502443023325E-004   3.7687445774703773E-002
 chl2c          41   2.5582381488167241E-002   2.5582381488167241E-002  0.44304987499999998        2.2701588876900298E-004   1.0141799449155122E-016
 chl          41   2.1845285237189420E-005   8.5391914147217455E-004   2.5582381488167241E-002
 chl2c          42   3.7949995630725070E-002   3.7949995630725070E-002  0.76234377499999995        3.3958426171164864E-004   1.4249149226538624E-016
 chl          42   3.2405312443706391E-005   8.5389502436386078E-004   3.7949995630725070E-002
 chl2c          43   2.1185090152268007E-002   2.1185090152268007E-002  0.29539925000000000        3.3958426171164864E-004   1.7212788102850064E-016
 chl          43   1.8090353994839939E-005   8.5391914147239280E-004   2.1185090152268007E-002
 chl2c          44   3.7536352708156646E-002   3.7536352708156646E-002  0.62417262500000004        3.3958426171164864E-004   1.2186091753215390E-016
 chl          44   3.2052104810259502E-005   8.5389502436379714E-004   3.7536352708156646E-002
 chl2c          45   4.6544927192009838E-002   4.6544927192009838E-002  0.37662252499999999        1.2097700202996569E-004   1.7870500429403229E-006
 chl          45   3.9991200364289888E-005   8.5919567989258775E-004   4.6544927192009838E-002
 chl2c          46   3.7083195475449568E-002   3.7083195475449568E-002  0.51876034999999998        3.3958426171164864E-004   3.8079323700721485E-006
 chl          46   3.2085116918585120E-005   8.6521985247540599E-004   3.7083195475449568E-002
 chl2c          47   3.7519784612651236E-002   3.7519784612651236E-002  0.61962282499999999        3.3958426171164864E-004   1.5535529896534686E-016
 chl          47   3.2037957395948129E-005   8.5389502436390057E-004   3.7519784612651236E-002
 chl2c          48   3.7823212136301673E-002   3.7823212136301673E-002  0.71424949999999998        3.3958426171164864E-004   1.4945326767664363E-016
 chl          48   3.2297052648647607E-005   8.5389502436388235E-004   3.7823212136301673E-002
 chl2c          49   3.7152990741888416E-002   3.7152990741888416E-002  0.53276120000000005        3.3958426171164864E-004   1.3915858050100917E-016
 chl          49   3.1724753934734721E-005   8.5389502436385059E-004   3.7152990741888416E-002
 chl2c          50   2.1533072915600981E-002   2.1533072915600981E-002  0.38132569999999999        3.3958426171164864E-004   1.6065304637740035E-006
 chl          50   1.8493159448779837E-005   8.5882584066212457E-004   2.1533072915600981E-002
 chl2c          51   2.0700971146093840E-002   2.0700971146093840E-002  0.22275920000000002        3.3958426171164864E-004   1.8355866412270548E-016
 chl          51   1.7676955508717956E-005   8.5391914147242803E-004   2.0700971146093840E-002
 chl2c          52   3.7581825176985564E-002   3.7581825176985564E-002  0.63698869999999996        3.3958426171164864E-004   1.6525316758752064E-016
 chl          52   3.2090933527634446E-005   8.5389502443022262E-004   3.7581825176985564E-002
 chl2c          53   3.7925801262726190E-002   3.7925801262726190E-002  0.75269794999999995        3.3958426171164864E-004   1.4811857349651948E-016
 chl          53   3.2384652995769341E-005   8.5389502443016972E-004   3.7925801262726190E-002
 chl2c          54   3.7082433371327092E-002   3.7082433371327092E-002  0.51861124999999997        3.3958426171164864E-004   1.2166637431794780E-016
 chl          54   3.1664505347078210E-005   8.5389502436379659E-004   3.7082433371327092E-002
 chl2c          55   3.7357235588660491E-002   3.7357235588660491E-002  0.57808280000000001        3.3958426171164864E-004   3.7779605019360403E-006
 chl          55   3.2319682773216037E-005   8.6515188460643052E-004   3.7357235588660491E-002
 chl2c          56   3.7507394187257688E-002   3.7507394187257688E-002  0.61626080000000005        3.3958426171164864E-004   1.6568625050801819E-016
 chl          56   3.2027377275842440E-005   8.5389502443022393E-004   3.7507394187257688E-002
 chl2c          57   3.7727617852646313E-002   3.7727617852646313E-002  0.68163462500000005        3.3958426171164864E-004   3.9269138365463119E-006
 chl          57   3.2655273234439670E-005   8.6555354122760085E-004   3.7727617852646313E-002
 chl2c          58   3.7765358178394853E-002   3.7765358178394853E-002  0.69416802499999997        3.3958426171164864E-004   6.5944659351328081E-007
 chl          58   3.2324525554181911E-005   8.5593059654004325E-004   3.7765358178394853E-002
 chl2c          59   3.7173699120809672E-002   3.7173699120809672E-002  0.53705127500000005        3.3958426171164864E-004   1.6851610583995105E-016
 chl          59   3.1742436716461587E-005   8.5389502436394101E-004   3.7173699120809672E-002
 chl2c          60   3.7607757740906807E-002   3.7607757740906807E-002  0.64452155000000000        3.3958426171164864E-004   1.9896267944296788E-007
 chl          60   3.2136179616611927E-005   8.5450932326275547E-004   3.7607757740906807E-002
 chl2c          61   3.7805373434125003E-002   3.7805373434125003E-002  0.70794139999999994        3.3958426171164864E-004   1.4498632902163440E-016
 chl          61   3.2281820269617317E-005   8.5389502436386848E-004   3.7805373434125003E-002
 chl2c          62   3.7956103087269030E-002   3.7956103087269030E-002  0.76481592499999995        3.3958426171164864E-004   1.1848888264643091E-016
 chl          62   3.2410527570457992E-005   8.5389502436378673E-004   3.7956103087269030E-002
 chl2c          63   3.7855601011927406E-002   3.7855601011927406E-002  0.72597904999999996        3.3958426171164864E-004   1.7580769078917319E-006
 chl          63   3.2529977046387447E-005   8.5931741081426809E-004   3.7855601011927406E-002
 chl2c          64   2.5708982294816416E-002   2.5708982294816416E-002  0.48435739999999999        2.2701588876900298E-004   9.8697735308838990E-017
 chl          64   2.1953392089312754E-005   8.5391914147216609E-004   2.5708982294816416E-002
 chl2c          65   3.7953597170552002E-002   3.7953597170552002E-002  0.76379975000000000        3.3958426171164864E-004   1.3083693622279259E-016
 chl          65   3.2408387783159295E-005   8.5389502443011637E-004   3.7953597170552002E-002
 chl2c          66   3.1840477731474713E-002   3.1840477731474713E-002  0.35213202499999996        1.8989050783320045E-004   7.6101062045401277E-017
 chl          66   2.7189193408522288E-005   8.5391914147209627E-004   3.1840477731474713E-002
 chl2c          67   3.7937587124568600E-002   3.7937587124568600E-002  0.75736760000000003        3.3958426171164864E-004   1.3837281889551301E-016
 chl          67   3.2394716882039112E-005   8.5389502436384809E-004   3.7937587124568600E-002
 chl2c          68   3.7855407263856986E-002   3.7855407263856986E-002  0.72590779999999999        3.3958426171164864E-004   3.5101124112589130E-007
 chl          68   3.2365566442497311E-005   8.5497868816745818E-004   3.7855407263856986E-002
 chl2c          69   2.1732330561541505E-002   2.1732330561541505E-002  0.45524217500000003        3.3958426171164864E-004   2.9573241864150757E-006
 chl          69   1.8739745288930198E-005   8.6229800507879638E-004   2.1732330561541505E-002
 chl2c          70   3.2658010878182209E-002   3.2658010878182209E-002  0.48694062500000002        1.8989050783320045E-004   9.5906024578552876E-017
 chl          70   2.7887300611285721E-005   8.5391914147215720E-004   3.2658010878182209E-002
 chl2c          71   4.3481058864416305E-002   4.3481058864416305E-002  0.23986107500000001        1.2097700202996569E-004   8.3737929610409144E-017
 chl          71   3.7129308455801072E-005   8.5391914147211968E-004   4.3481058864416305E-002
 chl2c          72   3.7549776402781669E-002   3.7549776402781669E-002  0.62790522500000001        3.3958426171164864E-004   1.6620463204916308E-016
 chl          72   3.2063567238802758E-005   8.5389502443022555E-004   3.7549776402781669E-002
 chl2c          73   3.1852614277819484E-002   3.1852614277819484E-002  0.35362212500000001        1.8989050783320045E-004   9.2317720998170287E-017
 chl          73   2.7199557037759037E-005   8.5391914147214614E-004   3.1852614277819484E-002
 chl2c          74   3.7616827685877569E-002   3.7616827685877569E-002  0.64719590000000005        3.3958426171164864E-004   2.0397329283180893E-007
 chl          74   3.2144513448608672E-005   8.5452483439151460E-004   3.7616827685877569E-002
 chl2c          75   3.7826830779512356E-002   3.7826830779512356E-002  0.71554212500000003        3.3958426171164864E-004   1.3127841296700235E-016
 chl          75   3.2300142592585633E-005   8.5389502443011778E-004   3.7826830779512356E-002
 chl2c          76   3.7257729557919804E-002   3.7257729557919804E-002  0.55513977500000000        3.3958426171164864E-004   3.5585757930050672E-006
 chl          76   3.2211773531974267E-005   8.6456619644250624E-004   3.7257729557919804E-002
 chl2c          77   3.7138172437479272E-002   3.7138172437479272E-002  0.52973029999999999        3.3958426171164864E-004   1.1545556383659278E-016
 chl          77   3.1712100658327563E-005   8.5389502436377838E-004   3.7138172437479272E-002
 chl2c          78   4.7515248899399322E-002   4.7515248899399322E-002  0.45117492500000000        1.2097700202996569E-004   2.4185789447397408E-006
 chl          78   4.0895932352598684E-005   8.6069068982853804E-004   4.7515248899399322E-002
 prod   4.0062533589559321E-007   307.86196910053462        10.000000000000000     
 chl2c           1   3.7477407714772232E-002   3.7477407714772232E-002  0.60826437499999997        2.7745813828720787E-004   1.5235812569790846E-016
 chl           1   3.2254783743276136E-005   8.6064607212847513E-004   3.7477407714772232E-002
 chl2c           2   3.2640259920490348E-002   3.2640259920490348E-002  0.48302390000000001        1.5849279197695975E-004   1.7581759695083165E-006
 chl           2   2.8261235265655376E-005   8.6583977377931404E-004   3.2640259920490348E-002
 chl2c           3   3.7922212503796585E-002   3.7922212503796585E-002  0.75128689999999998        2.7745813828720787E-004   1.6416704010123041E-016
 chl           3   3.2637603237815270E-005   8.6064607212851178E-004   3.7922212503796585E-002
 chl2c           4   3.7976509103863923E-002   3.7976509103863923E-002  0.77318742499999993        2.7745813828720787E-004   2.6020849822141981E-006
 chl           4   3.2986396541929900E-005   8.6860001933599783E-004   3.7976509103863923E-002
 chl2c           5   3.2642540010778237E-002   2.5710500362372445E-002  0.48489679999999996        1.6957994085769982E-004   2.9675297437428800E-006
 chl           5   2.8348810675295204E-005   8.6846215600669288E-004   3.2642540010778237E-002
 chl2c           6   3.1261039902252048E-002   3.1261039902252048E-002  0.29222855000000003        1.5849279197695975E-004   1.0193032350113381E-016
 chl           6   2.6905132068883120E-005   8.6066017486977043E-004   3.1261039902252048E-002
 chl2c           7   4.3064391842467263E-002   4.3064391842467263E-002  0.22770740000000000        1.0262703516051486E-004   1.3877146366867483E-006
 chl           7   3.7241937630539093E-005   8.6479655318883548E-004   4.3064391842467263E-002
 chl2c           8   4.7969800906495587E-002   4.7969800906495587E-002  0.49578364999999996        1.0262703516051486E-004   7.3305784468061338E-017
 chl           8   4.1285697236648295E-005   8.6066017486968141E-004   4.7969800906495587E-002
 chl2c           9   2.4803669054600401E-002   2.4803669054600401E-002  0.28700202499999999        1.6957994085769982E-004   9.4169510831090065E-008
 chl           9   2.1354775336772686E-005   8.6095227644605106E-004   2.4803669054600401E-002
 chl2c          10   3.8248111382047645E-002   2.5387016219684602E-002  0.39094662499999999        1.6957994085769982E-004   3.5947469015046892E-006
 chl          10   3.3275953813402157E-005   8.7000253374656163E-004   3.8248111382047645E-002
 chl2c          11   2.1820572217820047E-002   2.1820572217820047E-002  0.49737575000000001        2.7745813828720787E-004   1.5023962551943044E-016
 chl          11   1.8780097500750739E-005   8.6066017486992091E-004   2.1820572217820047E-002
 chl2c          12   4.5290941298723353E-002   4.5290941298723353E-002  0.30768942500000002        1.0262703516051486E-004   7.2682005804088905E-017
 chl          12   3.8980109458171628E-005   8.6066017486967946E-004   4.5290941298723353E-002
 chl2c          13   3.7935816987997487E-002   3.7935816987997487E-002  0.75666275000000005        2.7745813828720787E-004   1.3678867055985029E-016
 chl          13   3.2649311881163146E-005   8.6064607206147860E-004   3.7935816987997487E-002
 chl2c          14   4.6856526101924839E-002   4.6856526101924839E-002  0.39804095000000000        1.0262703516051486E-004   8.0740496598882059E-017
 chl          14   4.0327545948669507E-005   8.6066017486970451E-004   4.6856526101924839E-002
 chl2c          15   2.6600422216613268E-002   2.0954299823745293E-002  0.25607262500000000        2.7745813828720787E-004   4.1180258749769329E-006
 chl          15   2.3177933027411539E-005   8.7133703512930650E-004   2.6600422216613268E-002
 chl2c          16   3.7823443882273475E-002   3.7823443882273475E-002  0.71433214999999994        2.7745813828720787E-004   1.7082252377250669E-016
 chl          16   3.2552598411652637E-005   8.6064607212853249E-004   3.7823443882273475E-002
 chl2c          17   3.7542254757581245E-002   3.7542254757581245E-002  0.62580860000000005        2.7745813828720787E-004   1.7073805081183500E-016
 chl          17   3.2310594095961005E-005   8.6064607212853227E-004   3.7542254757581245E-002
 chl2c          18   2.5694475239060960E-002   2.5694475239060960E-002  0.47925950000000000        1.6957994085769982E-004   1.5672076239643291E-016
 chl          18   2.2114211552441579E-005   8.6066017486994119E-004   2.5694475239060960E-002
 chl2c          19   3.7570220750293731E-002   3.7570220750293731E-002  0.63367130000000005        2.7745813828720787E-004   1.0289628095365991E-006
 chl          19   3.2454873142543617E-005   8.6384568667432918E-004   3.7570220750293731E-002
 chl2c          20   3.7020645196759419E-002   3.7020645196759419E-002  0.50678202500000002        2.7745813828720787E-004   1.5047507980519497E-016
 chl          20   3.1861672873774222E-005   8.6064607206152131E-004   3.7020645196759419E-002
 chl2c          21   3.7838475073783531E-002   3.7838475073783531E-002  0.71973185000000006        2.7745813828720787E-004   1.5016379368507661E-007
 chl          21   3.2583185165771045E-005   8.6111253432478768E-004   3.7838475073783531E-002
 chl2c          22   3.7613353106285476E-002   3.7613353106285476E-002  0.64616892500000001        2.7745813828720787E-004   3.7784202336718514E-006
 chl          22   3.2786222682313609E-005   8.7166444825241562E-004   3.7613353106285476E-002
 chl2c          23   3.2286562315070731E-002   3.2286562315070731E-002  0.41564179999999995        1.5849279197695975E-004   9.6110711302183438E-017
 chl          23   2.7787758368031930E-005   8.6066017486975232E-004   3.2286562315070731E-002
 chl2c          24   3.7348402796863071E-002   3.7348402796863071E-002  0.57597492500000003        2.7745813828720787E-004   1.2240479431235912E-016
 chl          24   3.2143756164888477E-005   8.6064607206143393E-004   3.7348402796863071E-002
 chl2c          25   4.5426679235459781E-002   4.5426679235459781E-002  0.31406487500000002        1.0262703516051486E-004   7.6375754974028106E-017
 chl          25   3.9096933694540175E-005   8.6066017486969096E-004   4.5426679235459781E-002
 chl2c          26   4.7955660680174553E-002   4.7955660680174553E-002  0.49427735000000000        1.0262703516051486E-004   7.0213264660489035E-017
 chl          26   4.1273527306989674E-005   8.6066017486967177E-004   4.7955660680174553E-002
 chl2c          27   4.5333133499525620E-002   4.5333133499525620E-002  0.30964730000000001        1.0262703516051486E-004   8.0127412870765863E-017
 chl          27   3.9016422605093295E-005   8.6066017486970266E-004   4.5333133499525620E-002
 chl2c          28   3.1209236063453518E-002   3.1209236063453518E-002  0.28776342500000002        1.5849279197695975E-004   7.9690252037999492E-017
 chl          28   2.6860546567921690E-005   8.6066017486970126E-004   3.1209236063453518E-002
 chl2c          29   3.7743217595736761E-002   3.7743217595736761E-002  0.68676297499999994        2.7745813828720787E-004   3.5896315789383684E-006
 chl          29   3.2882454880387502E-005   8.7121493542462842E-004   3.7743217595736761E-002
 chl2c          30   2.5380056985171612E-002   2.5380056985171612E-002  0.38930277499999999        1.6957994085769982E-004   1.7153726977517908E-016
 chl          30   2.1843604283068040E-005   8.6066017486998716E-004   2.5380056985171612E-002
 chl2c          31   3.7576959810037038E-002   3.7576959810037038E-002  0.63559385000000002        2.7745813828720787E-004   3.8086379430913486E-006
 chl          31   3.2757131981525669E-005   8.7173449228258317E-004   3.7576959810037038E-002
 chl2c          32   2.4237631348995099E-002   2.0893126428578448E-002  0.24722667500000001        2.7745813828720787E-004   3.7279446094819760E-006
 chl          32   2.1095158811108172E-005   8.7034737459948960E-004   2.4237631348995099E-002
 chl2c          33   3.7458922634011876E-002   3.7458922634011876E-002  0.60343137499999999        2.7745813828720787E-004   1.3731565496070178E-006
 chl          33   3.2398755789517536E-005   8.6491424502690257E-004   3.7458922634011876E-002
 chl2c          34   3.1004085789798731E-002   2.5350269098008315E-002  0.38241020000000003        1.6957994085769982E-004   2.8607741165620363E-006
 chl          34   2.6915989279064272E-005   8.6814329767854136E-004   3.1004085789798731E-002
 chl2c          35   2.5740370148566064E-002   2.5740370148566064E-002  0.49574644999999995        1.6957994085769982E-004   1.2448435078812811E-016
 chl          35   2.2153711473279301E-005   8.6066017486984090E-004   2.5740370148566064E-002
 chl2c          36   3.7770393924465726E-002   3.7770393924465726E-002  0.69587337500000002        2.7745813828720787E-004   1.3036261365617378E-016
 chl          36   3.2506941173834062E-005   8.6064607212840661E-004   3.7770393924465726E-002
 chl2c          37   2.1353674699533250E-002   2.1353674699533250E-002  0.33194060000000003        2.7745813828720787E-004   1.1410711178919875E-016
 chl          37   1.8378257401013294E-005   8.6066017486980848E-004   2.1353674699533250E-002
 chl2c          38   2.1543295686358745E-002   2.1543295686358745E-002  0.38455722500000000        2.7745813828720787E-004   1.7503228658659806E-016
 chl          38   1.8541456632697594E-005   8.6066017486999811E-004   2.1543295686358745E-002
 chl2c          39   2.5670077108751441E-002   2.5670077108751441E-002  0.47091117500000002        1.6957994085769982E-004   1.4139737968279185E-016
 chl          39   2.2093213053341665E-005   8.6066017486989348E-004   2.5670077108751441E-002
 chl2c          40   3.7687445774703773E-002   3.7687445774703773E-002  0.66875547499999999        2.7745813828720787E-004   1.7114866700743138E-016
 chl          40   3.2435552174555900E-005   8.6064607212853357E-004   3.7687445774703773E-002
 chl2c          41   2.5582381488167241E-002   2.5582381488167241E-002  0.44304987499999998        1.6957994085769982E-004   1.0287705925029080E-016
 chl          41   2.2017736925191279E-005   8.6066017486977368E-004   2.5582381488167241E-002
 chl2c          42   3.7949995630725070E-002   3.7949995630725070E-002  0.76234377499999995        2.7745813828720787E-004   1.4461681933752065E-016
 chl          42   3.2661514674334738E-005   8.6064607206150310E-004   3.7949995630725070E-002
 chl2c          43   2.1185090152268007E-002   2.1185090152268007E-002  0.29539925000000000        2.7745813828720787E-004   1.7429582229579128E-016
 chl          43   1.8233163395087611E-005   8.6066017486999583E-004   2.1185090152268007E-002
 chl2c          44   3.7536352708156646E-002   3.7536352708156646E-002  0.62417262500000004        2.7745813828720787E-004   1.2371707920463969E-016
 chl          44   3.2305514517787733E-005   8.6064607206143794E-004   3.7536352708156646E-002
 chl2c          45   4.6544927192009838E-002   4.6544927192009838E-002  0.37662252499999999        1.0262703516051486E-004   1.7228922041364142E-006
 chl          45   4.0293245136639281E-005   8.6568499657157572E-004   4.6544927192009838E-002
 chl2c          46   3.7083195475449568E-002   3.7083195475449568E-002  0.51876034999999998        2.7745813828720787E-004   3.8431864383854026E-006
 chl          46   3.2328658245542464E-005   8.7178728345957185E-004   3.7083195475449568E-002
 chl2c          47   3.7519784612651236E-002   3.7519784612651236E-002  0.61962282499999999        2.7745813828720787E-004   1.5764211677089518E-016
 chl          47   3.2291255251473434E-005   8.6064607206154365E-004   3.7519784612651236E-002
 chl2c          48   3.7823212136301673E-002   3.7823212136301673E-002  0.71424949999999998        2.7745813828720787E-004   1.5166659236730655E-016
 chl          48   3.2552398957857835E-005   8.6064607206152500E-004   3.7823212136301673E-002
 chl2c          49   3.7152990741888416E-002   3.7152990741888416E-002  0.53276120000000005        2.7745813828720787E-004   1.4124127569480179E-016
 chl          49   3.1975575547343262E-005   8.6064607206149247E-004   3.7152990741888416E-002
 chl2c          50   2.1533072915600981E-002   2.1533072915600981E-002  0.38132569999999999        2.7745813828720787E-004   1.7327768422033550E-006
 chl          50   1.8645051857133393E-005   8.6587975298336637E-004   2.1533072915600981E-002
 chl2c          51   2.0700971146093840E-002   2.0700971146093840E-002  0.22275920000000002        2.7745813828720787E-004   1.8581953640442632E-016
 chl          51   1.7816501446576604E-005   8.6066017487003161E-004   2.0700971146093840E-002
 chl2c          52   3.7581825176985564E-002   3.7581825176985564E-002  0.63698869999999996        2.7745813828720787E-004   1.6766096482269175E-016
 chl          52   3.2344650221993443E-005   8.6064607212852262E-004   3.7581825176985564E-002
 chl2c          53   3.7925801262726190E-002   3.7925801262726190E-002  0.75269794999999995        2.7745813828720787E-004   1.5031513744722859E-016
 chl          53   3.2640691889090216E-005   8.6064607212846885E-004   3.7925801262726190E-002
 chl2c          54   3.7082433371327092E-002   3.7082433371327092E-002  0.51861124999999997        2.7745813828720787E-004   1.2351993762202504E-016
 chl          54   3.1914850623512626E-005   8.6064607206143740E-004   3.7082433371327092E-002
 chl2c          55   3.7357235588660491E-002   3.7357235588660491E-002  0.57808280000000001        2.7745813828720787E-004   3.8415879295257622E-006
 chl          55   3.2568010791919154E-005   8.7179927204798118E-004   3.7357235588660491E-002
 chl2c          56   3.7507394187257688E-002   3.7507394187257688E-002  0.61626080000000005        2.7745813828720787E-004   1.6809927654944646E-016
 chl          56   3.2280591483039565E-005   8.6064607212852403E-004   3.7507394187257688E-002
 chl2c          57   3.7727617852646313E-002   3.7727617852646313E-002  0.68163462500000005        2.7745813828720787E-004   3.9408464473046389E-006
 chl          57   3.2900476216123481E-005   8.7205283791369189E-004   3.7727617852646313E-002
 chl2c          58   3.7765358178394853E-002   3.7765358178394853E-002  0.69416802499999997        2.7745813828720787E-004   7.5427364182923966E-007
 chl          58   3.2591173120980428E-005   8.6299123569879123E-004   3.7765358178394853E-002
 chl2c          59   3.7173699120809672E-002   3.7173699120809672E-002  0.53705127500000005        2.7745813828720787E-004   1.7096316503087549E-016
 chl          59   3.1993398132324042E-005   8.6064607206158506E-004   3.7173699120809672E-002
 chl2c          60   3.7607757740906807E-002   3.7607757740906807E-002  0.64452155000000000        2.7745813828720787E-004   2.5406317514442977E-007
 chl          60   3.2396666236564242E-005   8.6143572982352141E-004   3.7607757740906807E-002
 chl2c          61   3.7805373434125003E-002   3.7805373434125003E-002  0.70794139999999994        2.7745813828720787E-004   1.4714335438684896E-016
 chl          61   3.2537046148898278E-005   8.6064607206151091E-004   3.7805373434125003E-002
 chl2c          62   3.7956103087269030E-002   3.7956103087269030E-002  0.76481592499999995        2.7745813828720787E-004   1.2029984639141353E-016
 chl          62   3.2666771032816704E-005   8.6064607206142731E-004   3.7956103087269030E-002
 chl2c          63   3.7855601011927406E-002   3.7855601011927406E-002  0.72597904999999996        2.7745813828720787E-004   1.8472000212434816E-006
 chl          63   3.2797032615317759E-005   8.6637199618054377E-004   3.7855601011927406E-002
 chl2c          64   2.5708982294816416E-002   2.5708982294816416E-002  0.48435739999999999        1.6957994085769982E-004   1.0012470932171584E-016
 chl          64   2.2126697197580391E-005   8.6066017486976512E-004   2.5708982294816416E-002
 chl2c          65   3.7953597170552002E-002   3.7953597170552002E-002  0.76379975000000000        2.7745813828720787E-004   1.3281175735213893E-016
 chl          65   3.2664614327979679E-005   8.6064607212841431E-004   3.7953597170552002E-002
 chl2c          66   3.1840477731474713E-002   3.1840477731474713E-002  0.35213202499999996        1.5849279197695975E-004   7.5984959087094697E-017
 chl          66   2.7403831132305491E-005   8.6066017486968976E-004   3.1840477731474713E-002
 chl2c          67   3.7937587124568600E-002   3.7937587124568600E-002  0.75736760000000003        2.7745813828720787E-004   1.4044541563617582E-016
 chl          67   3.2650835342250525E-005   8.6064607206148998E-004   3.7937587124568600E-002
 chl2c          68   3.7855407263856986E-002   3.7855407263856986E-002  0.72590779999999999        2.7745813828720787E-004   4.3264528830962570E-007
 chl          68   3.2631017280771086E-005   8.6199091858472855E-004   3.7855407263856986E-002
 chl2c          69   2.1732330561541505E-002   2.1732330561541505E-002  0.45524217500000003        2.7745813828720787E-004   2.9837440573183844E-006
 chl          69   1.8879334147511601E-005   8.6872110168070545E-004   2.1732330561541505E-002
 chl2c          70   3.2658010878182209E-002   3.2658010878182209E-002  0.48694062500000002        1.5849279197695975E-004   9.5767587548811500E-017
 chl          70   2.8107449353314537E-005   8.6066017486975124E-004   3.2658010878182209E-002
 chl2c          71   4.3481058864416305E-002   4.3481058864416305E-002  0.23986107500000001        1.0262703516051486E-004   8.3612226230085106E-017
 chl          71   3.7422415725768841E-005   8.6066017486971351E-004   4.3481058864416305E-002
 chl2c          72   3.7549776402781669E-002   3.7549776402781669E-002  0.62790522500000001        2.7745813828720787E-004   1.6862390963817071E-016
 chl          72   3.2317067570358443E-005   8.6064607212852566E-004   3.7549776402781669E-002
 chl2c          73   3.1852614277819484E-002   3.1852614277819484E-002  0.35362212500000001        1.5849279197695975E-004   9.2181678137197313E-017
 chl          73   2.7414276574406496E-005   8.6066017486974007E-004   3.1852614277819484E-002
 chl2c          74   3.7616827685877569E-002   3.7616827685877569E-002  0.64719590000000005        2.7745813828720787E-004   2.6827131202861394E-007
 chl          74   3.2406137775234243E-005   8.6147981551885173E-004   3.7616827685877569E-002
 chl2c          75   3.7826830779512356E-002   3.7826830779512356E-002  0.71554212500000003        2.7745813828720787E-004   1.3325900845540460E-016
 chl          75   3.2555513331453566E-005   8.6064607212841561E-004   3.7826830779512356E-002
 chl2c          76   3.7257729557919804E-002   3.7257729557919804E-002  0.55513977500000000        2.7745813828720787E-004   3.5980010229160337E-006
 chl          76   3.2459395060537603E-005   8.7121237514157038E-004   3.7257729557919804E-002
 chl2c          77   3.7138172437479272E-002   3.7138172437479272E-002  0.52973029999999999        2.7745813828720787E-004   1.1722557878532952E-016
 chl          77   3.1962822231960534E-005   8.6064607206422857E-004   3.7138172437479272E-002
 chl2c          78   4.7515248899399322E-002   4.7515248899399322E-002  0.45117492500000000        1.0262703516051486E-004   2.3936800814994705E-006
 chl          78   4.1202379231833676E-005   8.6714013261444890E-004   4.7515248899399322E-002
 prod   3.9991638400447721E-007   233.49993991714391        10.000000000000000     
 chl2c           1   3.7477407714772232E-002   3.7477407714772232E-002  0.60826437499999997        2.3047863791082331E-004   1.4814257125202225E-016
 chl           1   3.2567065930662461E-005   8.6897861715835021E-004   3.7477407714772232E-002
 chl2c           2   3.2640259920490348E-002   3.2640259920490348E-002  0.48302390000000001        1.3454455320162297E-004   1.7361559325379824E-006
 chl           2   2.8528124217075433E-005   8.7401645350154006E-004   3.2640259920490348E-002
 chl2c           3   3.7922212503796585E-002   3.7922212503796585E-002  0.75128689999999998        2.3047863791082331E-004   1.5967529422193320E-016
 chl           3   3.2953591781135625E-005   8.6897861715838642E-004   3.7922212503796585E-002
 chl2c           4   3.7976509103863923E-002   3.7976509103863923E-002  0.77318742499999993        2.3047863791082331E-004   2.7019563214695281E-006
 chl           4   3.3310596284022726E-005   8.7713686881855967E-004   3.7976509103863923E-002
 chl2c           5   3.9549828245713306E-002   2.5710500362372445E-002  0.48489679999999996        1.3270772943826722E-004   2.8573381472153079E-006
 chl           5   3.4667056210098329E-005   8.7654125814960499E-004   3.9549828245713306E-002
 chl2c           6   3.1261039902252048E-002   3.1261039902252048E-002  0.29222855000000003        1.3454455320162297E-004   1.0180300407091785E-016
 chl           6   2.7165720386923476E-005   8.6899605617298914E-004   3.1261039902252048E-002
 chl2c           7   4.3064391842467263E-002   4.3064391842467263E-002  0.22770740000000000        8.8198703901618740E-005   1.4451377865491897E-006
 chl           7   3.7604193099532432E-005   8.7320850221434356E-004   4.3064391842467263E-002
 chl2c           8   4.7969800906495587E-002   4.7969800906495587E-002  0.49578364999999996        8.8198703901618740E-005   7.3227897193305726E-017
 chl           8   4.1685567803143836E-005   8.6899605617289937E-004   4.7969800906495587E-002
 chl2c           9   2.4803669054600401E-002   2.4803669054600401E-002  0.28700202499999999        1.3270772943826722E-004   2.5526430811325660E-007
 chl           9   2.1574154119174071E-005   8.6979688656879000E-004   2.4803669054600401E-002
 chl2c          10   4.6084626826984491E-002   2.5387016219684602E-002  0.39094662499999999        1.3270772943826722E-004   3.4665257148836325E-006
 chl          10   4.0463218537908881E-005   8.7801988046512644E-004   4.6084626826984491E-002
 chl2c          11   2.1820572217820047E-002   2.1820572217820047E-002  0.49737575000000001        2.3047863791082331E-004   1.4650682665633729E-016
 chl          11   1.8961991200726586E-005   8.6899605617312987E-004   2.1820572217820047E-002
 chl2c          12   4.5290941298723353E-002   4.5290941298723353E-002  0.30768942500000002        8.8198703901618740E-005   7.2604680590609283E-017
 chl          12   3.9357649368948800E-005   8.6899605617289741E-004   4.5290941298723353E-002
 chl2c          13   3.7935816987997487E-002   3.7935816987997487E-002  0.75666275000000005        2.3047863791082331E-004   1.3294806284994979E-016
 chl          13   3.2965413784438957E-005   8.6897861709077948E-004   3.7935816987997487E-002
 chl2c          14   4.6856526101924839E-002   4.6856526101924839E-002  0.39804095000000000        8.8198703901618740E-005   8.0636965019220849E-017
 chl          14   4.0718136388536301E-005   8.6899605617292278E-004   4.6856526101924839E-002
 chl2c          15   3.0412637489433614E-002   2.0954299823745293E-002  0.25607262500000000        2.3047863791082331E-004   3.9770711627124570E-006
 chl          15   2.6743207357439390E-005   8.7934521847146240E-004   3.0412637489433614E-002
 chl2c          16   3.7823443882273475E-002   3.7823443882273475E-002  0.71433214999999994        2.3047863791082331E-004   1.6617820810823466E-016
 chl          16   3.2867763960986610E-005   8.6897861715840691E-004   3.7823443882273475E-002
 chl2c          17   3.7542254757581245E-002   3.7542254757581245E-002  0.62580860000000005        2.3047863791082331E-004   1.6609565769290126E-016
 chl          17   3.2623416624251560E-005   8.6897861715840659E-004   3.7542254757581245E-002
 chl2c          18   2.5694475239060960E-002   2.5694475239060960E-002  0.47925950000000000        1.3270772943826722E-004   1.5287112059860982E-016
 chl          18   2.2328397648182625E-005   8.6899605617314982E-004   2.5694475239060960E-002
 chl2c          19   3.7570220750293731E-002   3.7570220750293731E-002  0.63367130000000005        2.3047863791082331E-004   1.1495604144276472E-006
 chl          19   3.2783258973813776E-005   8.7258627495707410E-004   3.7570220750293731E-002
 chl2c          20   3.7020645196759419E-002   3.7020645196759419E-002  0.50678202500000002        2.3047863791082331E-004   1.4630421820197883E-016
 chl          20   3.2170149066889961E-005   8.6897861709082144E-004   3.7020645196759419E-002
 chl2c          21   3.7838475073783531E-002   3.7838475073783531E-002  0.71973185000000006        2.3047863791082331E-004   2.6633104002429427E-007
 chl          21   3.2912451896102758E-005   8.6981443707561616E-004   3.7838475073783531E-002
 chl2c          22   3.7613353106285476E-002   3.7613353106285476E-002  0.64616892500000001        2.3047863791082331E-004   3.7011368407452635E-006
 chl          22   3.3080920196007563E-005   8.7949936562500960E-004   3.7613353106285476E-002
 chl2c          23   3.2286562315070731E-002   3.2286562315070731E-002  0.41564179999999995        1.3454455320162297E-004   9.6013462452083454E-017
 chl          23   2.8056895319179330E-005   8.6899605617297092E-004   3.2286562315070731E-002
 chl2c          24   3.7348402796863071E-002   3.7348402796863071E-002  0.57597492500000003        2.3047863791082331E-004   1.1892159856416417E-016
 chl          24   3.2454963412965830E-005   8.6897861709073546E-004   3.7348402796863071E-002
 chl2c          25   4.5426679235459781E-002   4.5426679235459781E-002  0.31406487500000002        8.8198703901618740E-005   7.6295126666973020E-017
 chl          25   3.9475605100646331E-005   8.6899605617290902E-004   4.5426679235459781E-002
 chl2c          26   4.7955660680174553E-002   4.7955660680174553E-002  0.49427735000000000        8.8198703901618740E-005   7.0138180888531890E-017
 chl          26   4.1673280002237005E-005   8.6899605617288972E-004   4.7955660680174553E-002
 chl2c          27   4.5333133499525620E-002   4.5333133499525620E-002  0.30964730000000001        8.8198703901618740E-005   8.0024589478485994E-017
 chl          27   3.9394314225048287E-005   8.6899605617292083E-004   4.5333133499525620E-002
 chl2c          28   3.1209236063453518E-002   3.1209236063453518E-002  0.28776342500000002        1.3454455320162297E-004   7.9587934315708036E-017
 chl          28   2.7120703055310754E-005   8.6899605617291932E-004   3.1209236063453518E-002
 chl2c          29   3.7743217595736761E-002   3.7743217595736761E-002  0.68676297499999994        2.3047863791082331E-004   3.4515747449219132E-006
 chl          29   3.3174731578382181E-005   8.7895875581443263E-004   3.7743217595736761E-002
 chl2c          30   2.5380056985171612E-002   2.5380056985171612E-002  0.38930277499999999        1.3270772943826722E-004   1.6743330105090133E-016
 chl          30   2.2055169425565091E-005   8.6899605617319546E-004   2.5380056985171612E-002
 chl2c          31   3.7576959810037038E-002   3.7576959810037038E-002  0.63559385000000002        2.3047863791082331E-004   3.6437843425982076E-006
 chl          31   3.3044191296613401E-005   8.7937372963810376E-004   3.7576959810037038E-002
 chl2c          32   2.8698777829980187E-002   2.0893126428578448E-002  0.24722667500000001        2.3047863791082331E-004   3.7415583848398244E-006
 chl          32   2.5218837255734762E-005   8.7874255151694633E-004   2.8698777829980187E-002
 chl2c          33   3.7458922634011876E-002   3.7458922634011876E-002  0.60343137499999999        2.3047863791082331E-004   1.4869958896579758E-006
 chl          33   3.2725397557362243E-005   8.7363424402516865E-004   3.7458922634011876E-002
 chl2c          34   3.7166331518936953E-002   2.5350269098008315E-002  0.38241020000000003        1.3270772943826722E-004   2.7316145217717350E-006
 chl          34   3.2563883411472318E-005   8.7616619883187561E-004   3.7166331518936953E-002
 chl2c          35   2.5740370148566064E-002   2.5740370148566064E-002  0.49574644999999995        1.3270772943826722E-004   1.2125021512893523E-016
 chl          35   2.2368280143538426E-005   8.6899605617305040E-004   2.5740370148566064E-002
 chl2c          36   3.7770393924465726E-002   3.7770393924465726E-002  0.69587337500000002        2.3047863791082331E-004   1.2668036756234410E-016
 chl          36   3.2821664682005836E-005   8.6897861715828288E-004   3.7770393924465726E-002
 chl2c          37   2.1353674699533250E-002   2.1353674699533250E-002  0.33194060000000003        2.3047863791082331E-004   1.1108968801199304E-016
 chl          37   1.8556259098695962E-005   8.6899605617301863E-004   2.1353674699533250E-002
 chl2c          38   2.1543295686358745E-002   2.1543295686358745E-002  0.38455722500000000        2.3047863791082331E-004   1.7087089030865627E-016
 chl          38   1.8721038988418995E-005   8.6899605617320620E-004   2.1543295686358745E-002
 chl2c          39   2.5670077108751441E-002   2.5670077108751441E-002  0.47091117500000002        1.3270772943826722E-004   1.3782955407475155E-016
 chl          39   2.2307195769164441E-005   8.6899605617310255E-004   2.5670077108751441E-002
 chl2c          40   3.7687445774703773E-002   3.7687445774703773E-002  0.66875547499999999        2.3047863791082331E-004   1.6649693190176928E-016
 chl          40   3.2749584513534567E-005   8.6897861715840789E-004   3.7687445774703773E-002
 chl2c          41   2.5582381488167241E-002   2.5582381488167241E-002  0.44304987499999998        1.3270772943826722E-004   1.0010457712546173E-016
 chl          41   2.2230988620730089E-005   8.6899605617298415E-004   2.5582381488167241E-002
 chl2c          42   3.7949995630725070E-002   3.7949995630725070E-002  0.76234377499999995        2.3047863791082331E-004   1.4058615037963826E-016
 chl          42   3.2977734721789504E-005   8.6897861709080344E-004   3.7949995630725070E-002
 chl2c          43   2.1185090152268007E-002   2.1185090152268007E-002  0.29539925000000000        2.3047863791082331E-004   1.7014644629109811E-016
 chl          43   1.8409759791994680E-005   8.6899605617320392E-004   2.1185090152268007E-002
 chl2c          44   3.7536352708156646E-002   3.7536352708156646E-002  0.62417262500000004        2.3047863791082331E-004   1.2020083439562571E-016
 chl          44   3.2618287866964198E-005   8.6897861709073947E-004   3.7536352708156646E-002
 chl2c          45   4.6544927192009838E-002   4.6544927192009838E-002  0.37662252499999999        8.8198703901618740E-005   1.5807790948261279E-006
 chl          45   4.0661350136764210E-005   8.7359359203690765E-004   4.6544927192009838E-002
 chl2c          46   3.7083195475449568E-002   3.7083195475449568E-002  0.51876034999999998        2.3047863791082331E-004   3.6929397368605401E-006
 chl          46   3.2612631630503752E-005   8.7944502118471714E-004   3.7083195475449568E-002
 chl2c          47   3.7519784612651236E-002   3.7519784612651236E-002  0.61962282499999999        2.3047863791082331E-004   1.5330210853222295E-016
 chl          47   3.2603890546247977E-005   8.6897861709084344E-004   3.7519784612651236E-002
 chl2c          48   3.7823212136301673E-002   3.7823212136301673E-002  0.71424949999999998        2.3047863791082331E-004   1.4746743012976027E-016
 chl          48   3.2867562576136340E-005   8.6897861709082512E-004   3.7823212136301673E-002
 chl2c          49   3.7152990741888416E-002   3.7152990741888416E-002  0.53276120000000005        2.3047863791082331E-004   1.3729217885427951E-016
 chl          49   3.2285154515673233E-005   8.6897861709079314E-004   3.7152990741888416E-002
 chl2c          50   2.1533072915600981E-002   2.1533072915600981E-002  0.38132569999999999        2.3047863791082331E-004   1.8939009683209892E-006
 chl          50   1.8831027977010475E-005   8.7451651934764777E-004   2.1533072915600981E-002
 chl2c          51   2.0700971146093840E-002   2.0700971146093840E-002  0.22275920000000002        2.3047863791082331E-004   1.8148698466711878E-016
 chl          51   1.7989062284911576E-005   8.6899605617323970E-004   2.0700971146093840E-002
 chl2c          52   3.7581825176985564E-002   3.7581825176985564E-002  0.63698869999999996        2.3047863791082331E-004   1.6308884755858430E-016
 chl          52   3.2657802472585549E-005   8.6897861715839715E-004   3.7581825176985564E-002
 chl2c          53   3.7925801262726190E-002   3.7925801262726190E-002  0.75269794999999995        2.3047863791082331E-004   1.4614808025059618E-016
 chl          53   3.2956710335905975E-005   8.6897861715834392E-004   3.7925801262726190E-002
 chl2c          54   3.7082433371327092E-002   3.7082433371327092E-002  0.51861124999999997        2.3047863791082331E-004   1.2000865202729583E-016
 chl          54   3.2223841669375281E-005   8.6897861709073882E-004   3.7082433371327092E-002
 chl2c          55   3.7357235588660491E-002   3.7357235588660491E-002  0.57808280000000001        2.3047863791082331E-004   3.7453118617088134E-006
 chl          55   3.2858499376152764E-005   8.7957523779213240E-004   3.7357235588660491E-002
 chl2c          56   3.7507394187257688E-002   3.7507394187257688E-002  0.61626080000000005        2.3047863791082331E-004   1.6351711995629779E-016
 chl          56   3.2593123534058137E-005   8.6897861715839846E-004   3.7507394187257688E-002
 chl2c          57   3.7727617852646313E-002   3.7727617852646313E-002  0.68163462500000005        2.3047863791082331E-004   3.7366431855863791E-006
 chl          57   3.3184592883133497E-005   8.7958357224522850E-004   3.7727617852646313E-002
 chl2c          58   3.7765358178394853E-002   3.7765358178394853E-002  0.69416802499999997        2.3047863791082331E-004   9.1612994489999749E-007
 chl          58   3.2925903038709200E-005   8.7185464740397324E-004   3.7765358178394853E-002
 chl2c          59   3.7173699120809672E-002   3.7173699120809672E-002  0.53705127500000005        2.3047863791082331E-004   1.6631564926219425E-016
 chl          59   3.2303149654153814E-005   8.6897861709088432E-004   3.7173699120809672E-002
 chl2c          60   3.7607757740906807E-002   3.7607757740906807E-002  0.64452155000000000        2.3047863791082331E-004   3.6195384355092897E-007
 chl          60   3.2723065654448991E-005   8.7011477471988109E-004   3.7607757740906807E-002
 chl2c          61   3.7805373434125003E-002   3.7805373434125003E-002  0.70794139999999994        2.3047863791082331E-004   1.4305200968463033E-016
 chl          61   3.2852061125387639E-005   8.6897861709081124E-004   3.7805373434125003E-002
 chl2c          62   3.7956103087269030E-002   3.7956103087269030E-002  0.76481592499999995        2.3047863791082331E-004   1.1686984810067584E-016
 chl          62   3.2983041970928190E-005   8.6897861709072895E-004   3.7956103087269030E-002
 chl2c          63   3.7855601011927406E-002   3.7855601011927406E-002  0.72597904999999996        2.3047863791082331E-004   1.9155663927487204E-006
 chl          63   3.3121087405730010E-005   8.7493228268372596E-004   3.7855601011927406E-002
 chl2c          64   2.5708982294816416E-002   2.5708982294816416E-002  0.48435739999999999        1.3270772943826722E-004   9.7413928214714596E-017
 chl          64   2.2341004222416323E-005   8.6899605617297569E-004   2.5708982294816416E-002
 chl2c          65   3.7953597170552002E-002   3.7953597170552002E-002  0.76379975000000000        2.3047863791082331E-004   1.2906890570886422E-016
 chl          65   3.2980864385449081E-005   8.6897861715829047E-004   3.7953597170552002E-002
 chl2c          66   3.1840477731474713E-002   3.1840477731474713E-002  0.35213202499999996        1.3454455320162297E-004   7.5904677377303688E-017
 chl          66   2.7669249575312818E-005   8.6899605617290771E-004   3.1840477731474713E-002
 chl2c          67   3.7937587124568600E-002   3.7937587124568600E-002  0.75736760000000003        2.3047863791082331E-004   1.3651563587202323E-016
 chl          67   3.2966951995269009E-005   8.6897861709079064E-004   3.7937587124568600E-002
 chl2c          68   3.7855407263856986E-002   3.7855407263856986E-002  0.72590779999999999        2.3047863791082331E-004   5.8924476059921965E-007
 chl          68   3.2965560742576423E-005   8.7082832084733061E-004   3.7855407263856986E-002
 chl2c          69   2.3648508185843058E-002   2.1732330561541505E-002  0.45524217500000003        2.3047863791082331E-004   2.8745631822982912E-006
 chl          69   2.0731916835624756E-005   8.7666911894407405E-004   2.3648508185843058E-002
 chl2c          70   3.2658010878182209E-002   3.2658010878182209E-002  0.48694062500000002        1.3454455320162297E-004   9.5647049861878812E-017
 chl          70   2.8379682655594288E-005   8.6899605617296984E-004   3.2658010878182209E-002
 chl2c          71   4.3481058864416305E-002   4.3481058864416305E-002  0.23986107500000001        8.8198703901618740E-005   8.3525302510632101E-017
 chl          71   3.7784868671400866E-005   8.6899605617293178E-004   4.3481058864416305E-002
 chl2c          72   3.7549776402781669E-002   3.7549776402781669E-002  0.62790522500000001        2.3047863791082331E-004   1.6402974922508901E-016
 chl          72   3.2629952773096335E-005   8.6897861715840008E-004   3.7549776402781669E-002
 chl2c          73   3.1852614277819484E-002   3.1852614277819484E-002  0.35362212500000001        1.3454455320162297E-004   9.2087600295754970E-017
 chl          73   2.7679796186223607E-005   8.6899605617295867E-004   3.1852614277819484E-002
 chl2c          74   3.7616827685877569E-002   3.7616827685877569E-002  0.64719590000000005        2.3047863791082331E-004   3.9694033536036588E-007
 chl          74   3.2735086703368081E-005   8.7022454356664868E-004   3.7616827685877569E-002
 chl2c          75   3.7826830779512356E-002   3.7826830779512356E-002  0.71554212500000003        2.3047863791082331E-004   1.2950512254161653E-016
 chl          75   3.2870707102261355E-005   8.6897861715829177E-004   3.7826830779512356E-002
 chl2c          76   3.7257729557919804E-002   3.7257729557919804E-002  0.55513977500000000        2.3047863791082331E-004   3.4674525495078267E-006
 chl          76   3.2748267632432518E-005   8.7896573465441575E-004   3.7257729557919804E-002
 chl2c          77   3.7138172437479272E-002   3.7138172437479272E-002  0.52973029999999999        2.3047863791082331E-004   1.1387368673073252E-016
 chl          77   3.2272278016169445E-005   8.6897862490402898E-004   3.7138172437479272E-002
 chl2c          78   4.7515248899399322E-002   4.7515248899399322E-002  0.45117492500000000        8.8198703901618740E-005   2.3397128313028645E-006
 chl          78   4.1581973607759884E-005   8.7512902848932677E-004   4.7515248899399322E-002
 prod   3.9942636763108870E-007   185.25147021313006        10.000000000000000     
 chl2c           1   3.7477407714772232E-002   3.7477407714772232E-002  0.60826437499999997        1.9341676024809933E-004   1.4510179749195791E-016
 chl           1   3.2898934544167620E-005   8.7783378174259520E-004   3.7477407714772232E-002
 chl2c           2   3.2640259920490348E-002   3.2640259920490348E-002  0.48302390000000001        1.1514951721873222E-004   1.7026755867870706E-006
 chl           2   2.8810453015434183E-005   8.8266616398321161E-004   3.2640259920490348E-002
 chl2c           3   3.7922212503796585E-002   3.7922212503796585E-002  0.75128689999999998        1.9341676024809933E-004   1.5643303322346316E-016
 chl           3   3.3289399214255450E-005   8.7783378174263109E-004   3.7922212503796585E-002
 chl2c           4   3.7976509103863923E-002   3.7976509103863923E-002  0.77318742499999993        1.9341676024809933E-004   2.8655032806511125E-006
 chl           4   3.3656168809934392E-005   8.8623650788666197E-004   3.7976509103863923E-002
 chl2c           5   4.6444153776020292E-002   2.5710500362372445E-002  0.48489679999999996        1.0715965730670109E-004   2.7520669653241915E-006
 chl           5   4.1110225945990072E-005   8.8515394519289971E-004   4.6444153776020292E-002
 chl2c           6   3.1261039902252048E-002   3.1261039902252048E-002  0.29222855000000003        1.1514951721873222E-004   1.0168310580505991E-016
 chl           6   2.7442576072462823E-005   8.7785230940080970E-004   3.1261039902252048E-002
 chl2c           7   4.3064391842467263E-002   4.3064391842467263E-002  0.22770740000000000        7.6245369383059363E-005   1.5073416240105358E-006
 chl           7   3.7987049029112781E-005   8.8209881537564081E-004   4.3064391842467263E-002
 chl2c           8   4.7969800906495587E-002   4.7969800906495587E-002  0.49578364999999996        7.6245369383059363E-005   7.3162664566925868E-017
 chl           8   4.2110400507260225E-005   8.7785230940072676E-004   4.7969800906495587E-002
 chl2c           9   2.4803669054600401E-002   2.4803669054600401E-002  0.28700202499999999        1.0715965730670109E-004   5.3131709148559145E-007
 chl           9   2.1815483944671992E-005   8.7952648846626250E-004   2.4803669054600401E-002
 chl2c          10   5.3860206314077883E-002   2.5387016219684602E-002  0.39094662499999999        1.0715965730670109E-004   3.3469216538278419E-006
 chl          10   4.7751420342013472E-005   8.8658071719142841E-004   5.3860206314077883E-002
 chl2c          11   2.1820572217820047E-002   2.1820572217820047E-002  0.49737575000000001        1.9341676024809933E-004   1.4379682902884134E-016
 chl          11   1.9155239713863395E-005   8.7785230940094349E-004   2.1820572217820047E-002
 chl2c          12   4.5290941298723353E-002   4.5290941298723353E-002  0.30768942500000002        7.6245369383059363E-005   7.2539918870279058E-017
 chl          12   3.9758757414016611E-005   8.7785230940071711E-004   4.5290941298723353E-002
 chl2c          13   3.7935816987997487E-002   3.7935816987997487E-002  0.75666275000000005        1.9341676024809933E-004   1.3018030552983601E-016
 chl          13   3.3301341687484857E-005   8.7783378167448107E-004   3.7935816987997487E-002
 chl2c          14   4.6856526101924839E-002   4.6856526101924839E-002  0.39804095000000000        7.6245369383059363E-005   8.0540091514320351E-017
 chl          14   4.1133109649070891E-005   8.7785230940074248E-004   4.6856526101924839E-002
 chl2c          15   3.4402054208957457E-002   2.0954299823745293E-002  0.25607262500000000        1.9341676024809933E-004   3.8432939177194977E-006
 chl          15   3.0545240002846312E-005   8.8789000265260536E-004   3.4402054208957457E-002
 chl2c          16   3.7823443882273475E-002   3.7823443882273475E-002  0.71433214999999994        1.9341676024809933E-004   1.6282450107362182E-016
 chl          16   3.3202696781707078E-005   8.7783378174265136E-004   3.7823443882273475E-002
 chl2c          17   3.7542254757581245E-002   3.7542254757581245E-002  0.62580860000000005        1.9341676024809933E-004   1.6274335564753465E-016
 chl          17   3.2955859468993580E-005   8.7783378174265104E-004   3.7542254757581245E-002
 chl2c          18   2.5694475239060960E-002   2.5694475239060960E-002  0.47925950000000000        1.0715965730670109E-004   1.5007447287472399E-016
 chl          18   2.2555954427455532E-005   8.7785230940096333E-004   2.5694475239060960E-002
 chl2c          19   3.7570220750293731E-002   3.7570220750293731E-002  0.63367130000000005        1.9341676024809933E-004   1.3378669261904556E-006
 chl          19   3.3139187867481909E-005   8.8205997211828521E-004   3.7570220750293731E-002
 chl2c          20   3.7020645196759419E-002   3.7020645196759419E-002  0.50678202500000002        1.9341676024809933E-004   1.4329601807190969E-016
 chl          20   3.2497972973102068E-005   8.7783378167452259E-004   3.7020645196759419E-002
 chl2c          21   3.7838475073783531E-002   3.7838475073783531E-002  0.71973185000000006        1.9341676024809933E-004   4.5710197276347383E-007
 chl          21   3.3270752270976304E-005   8.7928364465268889E-004   3.7838475073783531E-002
 chl2c          22   3.7613353106285476E-002   3.7613353106285476E-002  0.64616892500000001        1.9341676024809933E-004   3.6420847750511589E-006
 chl          22   3.3394744279909086E-005   8.8784278778720658E-004   3.7613353106285476E-002
 chl2c          23   3.2286562315070731E-002   3.2286562315070731E-002  0.41564179999999995        1.1514951721873222E-004   9.5932006410981584E-017
 chl          23   2.8342833290897402E-005   8.7785230940079137E-004   3.2286562315070731E-002
 chl2c          24   3.7348402796863071E-002   3.7348402796863071E-002  0.57597492500000003        1.9341676024809933E-004   1.1641356231858162E-016
 chl          24   3.2785689666670451E-005   8.7783378167443748E-004   3.7348402796863071E-002
 chl2c          25   4.5426679235459781E-002   4.5426679235459781E-002  0.31406487500000002        7.6245369383059363E-005   7.6227597507428552E-017
 chl          25   3.9877915275254504E-005   8.7785230940072882E-004   4.5426679235459781E-002
 chl2c          26   4.7955660680174553E-002   4.7955660680174553E-002  0.49427735000000000        7.6245369383059363E-005   7.0075297063516426E-017
 chl          26   4.2097987476928020E-005   8.7785230940070930E-004   4.7955660680174553E-002
 chl2c          27   4.5333133499525620E-002   4.5333133499525620E-002  0.30964730000000001        7.6245369383059363E-005   7.9928395872313568E-017
 chl          27   3.9795795934930643E-005   8.7785230940074063E-004   4.5333133499525620E-002
 chl2c          28   3.1209236063453518E-002   3.1209236063453518E-002  0.28776342500000002        1.1514951721873222E-004   7.9492225996154500E-017
 chl          28   2.7397099952935508E-005   8.7785230940073922E-004   3.1209236063453518E-002
 chl2c          29   3.7743217595736761E-002   3.7743217595736761E-002  0.68676297499999994        1.9341676024809933E-004   3.3254700758301195E-006
 chl          29   3.3486821015808051E-005   8.8722751129703659E-004   3.7743217595736761E-002
 chl2c          30   2.5380056985171612E-002   2.5380056985171612E-002  0.38930277499999999        1.0715965730670109E-004   1.6444746890305083E-016
 chl          30   2.2279941637162109E-005   8.7785230940100897E-004   2.5380056985171612E-002
 chl2c          31   3.7576959810037038E-002   3.7576959810037038E-002  0.63559385000000002        1.9341676024809933E-004   3.4723754475504994E-006
 chl          31   3.3349991714854702E-005   8.8751170620106183E-004   3.7576959810037038E-002
 chl2c          32   3.3694687552248387E-002   2.0893126428578448E-002  0.24722667500000001        1.9341676024809933E-004   3.7727491344342145E-006
 chl          32   2.9910684144425742E-005   8.8769732908325653E-004   3.3694687552248387E-002
 chl2c          33   3.7458922634011876E-002   3.7458922634011876E-002  0.60343137499999999        1.9341676024809933E-004   1.6649864368334049E-006
 chl          33   3.3078087928414770E-005   8.8304963417128808E-004   3.7458922634011876E-002
 chl2c          34   4.2814802711891135E-002   2.5350269098008315E-002  0.38241020000000003        1.0715965730670109E-004   2.5832291921453882E-006
 chl          34   3.7876636250568542E-005   8.8466216942414890E-004   4.2814802711891135E-002
 chl2c          35   2.5740370148566064E-002   2.5740370148566064E-002  0.49574644999999995        1.0715965730670109E-004   1.1890836643436396E-016
 chl          35   2.2596243379751792E-005   8.7785230940086445E-004   2.5740370148566064E-002
 chl2c          36   3.7770393924465726E-002   3.7770393924465726E-002  0.69587337500000002        1.9341676024809933E-004   1.2402774917190320E-016
 chl          36   3.3156127736618760E-005   8.7783378174252830E-004   3.7770393924465726E-002
 chl2c          37   2.1353674699533250E-002   2.1353674699533250E-002  0.33194060000000003        1.9341676024809933E-004   1.0890707730912421E-016
 chl          37   1.8745372649179402E-005   8.7785230940083290E-004   2.1353674699533250E-002
 chl2c          38   2.1543295686358745E-002   2.1543295686358745E-002  0.38455722500000000        1.9341676024809933E-004   1.6784222260709423E-016
 chl          38   1.8911831870379051E-005   8.7785230940101971E-004   2.1543295686358745E-002
 chl2c          39   2.5670077108751441E-002   2.5670077108751441E-002  0.47091117500000002        1.0715965730670109E-004   1.3524163758643769E-016
 chl          39   2.2534536472417049E-005   8.7785230940091627E-004   2.5670077108751441E-002
 chl2c          40   3.7687445774703773E-002   3.7687445774703773E-002  0.66875547499999999        1.9341676024809933E-004   1.6313780260965714E-016
 chl          40   3.3083313048629359E-005   8.7783378174265234E-004   3.7687445774703773E-002
 chl2c          41   2.5582381488167241E-002   2.5582381488167241E-002  0.44304987499999998        1.0715965730670109E-004   9.8101453219213243E-017
 chl          41   2.2457552669359850E-005   8.7785230940079853E-004   2.5582381488167241E-002
 chl2c          42   3.7949995630725070E-002   3.7949995630725070E-002  0.76234377499999995        1.9341676024809933E-004   1.3768007300846147E-016
 chl          42   3.3313788179050324E-005   8.7783378167450492E-004   3.7949995630725070E-002
 chl2c          43   2.1185090152268007E-002   2.1185090152268007E-002  0.29539925000000000        1.9341676024809933E-004   1.6712674834770725E-016
 chl          43   1.8597380315037223E-005   8.7785230940101743E-004   2.1185090152268007E-002
 chl2c          44   3.7536352708156646E-002   3.7536352708156646E-002  0.62417262500000004        1.9341676024809933E-004   1.1766880330009105E-016
 chl          44   3.2950678448066811E-005   8.7783378167444138E-004   3.7536352708156646E-002
 chl2c          45   4.6544927192009838E-002   4.6544927192009838E-002  0.37662252499999999        7.6245369383059363E-005   1.3506605296327045E-006
 chl          45   4.1044766859611011E-005   8.8183115402223650E-004   4.6544927192009838E-002
 chl2c          46   3.7083195475449568E-002   3.7083195475449568E-002  0.51876034999999998        1.9341676024809933E-004   3.5498804724964735E-006
 chl          46   3.2915931774709926E-005   8.8762393188314837E-004   3.7083195475449568E-002
 chl2c          47   3.7519784612651236E-002   3.7519784612651236E-002  0.61962282499999999        1.9341676024809933E-004   1.5017058396739121E-016
 chl          47   3.2936134414138021E-005   8.7783378167454449E-004   3.7519784612651236E-002
 chl2c          48   3.7823212136301673E-002   3.7823212136301673E-002  0.71424949999999998        1.9341676024809933E-004   1.4443860453575446E-016
 chl          48   3.3202493344687536E-005   8.7783378167452628E-004   3.7823212136301673E-002
 chl2c          49   3.7152990741888416E-002   3.7152990741888416E-002  0.53276120000000005        1.9341676024809933E-004   1.3444548491685541E-016
 chl          49   3.2614150363469393E-005   8.7783378167449462E-004   3.7152990741888416E-002
 chl2c          50   2.1533072915600981E-002   2.1533072915600981E-002  0.38132569999999999        1.9341676024809933E-004   2.1221738846393548E-006
 chl          50   1.9027740394518829E-005   8.8365188141507629E-004   2.1533072915600981E-002
 chl2c          51   2.0700971146093840E-002   2.0700971146093840E-002  0.22275920000000002        1.9341676024809933E-004   1.7833037172560280E-016
 chl          51   1.8172395327443044E-005   8.7785230940105310E-004   2.0700971146093840E-002
 chl2c          52   3.7581825176985564E-002   3.7581825176985564E-002  0.63698869999999996        1.9341676024809933E-004   1.5978789146008874E-016
 chl          52   3.2990595719904064E-005   8.7783378174264171E-004   3.7581825176985564E-002
 chl2c          53   3.7925801262726190E-002   3.7925801262726190E-002  0.75269794999999995        1.9341676024809933E-004   1.4314265250958151E-016
 chl          53   3.3292549548076789E-005   8.7783378174258902E-004   3.7925801262726190E-002
 chl2c          54   3.7082433371327092E-002   3.7082433371327092E-002  0.51861124999999997        1.9341676024809933E-004   1.1748022177481540E-016
 chl          54   3.2552212720042545E-005   8.7783378167444084E-004   3.7082433371327092E-002
 chl2c          55   3.7357235588660491E-002   3.7357235588660491E-002  0.57808280000000001        1.9341676024809933E-004   3.6642017356062728E-006
 chl          55   3.3168108070995009E-005   8.8786302167023681E-004   3.7357235588660491E-002
 chl2c          56   3.7507394187257688E-002   3.7507394187257688E-002  0.61626080000000005        1.9341676024809933E-004   1.6020883013411082E-016
 chl          56   3.2925257682712442E-005   8.7783378174264301E-004   3.7507394187257688E-002
 chl2c          57   3.7727617852646313E-002   3.7727617852646313E-002  0.68163462500000005        1.9341676024809933E-004   3.5023770026522314E-006
 chl          57   3.3486364247819790E-005   8.8758225813801209E-004   3.7727617852646313E-002
 chl2c          58   3.7765358178394853E-002   3.7765358178394853E-002  0.69416802499999997        1.9341676024809933E-004   1.1724634475026129E-006
 chl          58   3.3291899872796623E-005   8.8154598496149178E-004   3.7765358178394853E-002
 chl2c          59   3.7173699120809672E-002   3.7173699120809672E-002  0.53705127500000005        1.9341676024809933E-004   1.6295960356578193E-016
 chl          59   3.2632328878053556E-005   8.7783378167458515E-004   3.7173699120809672E-002
 chl2c          60   3.7607757740906807E-002   3.7607757740906807E-002  0.64452155000000000        1.9341676024809933E-004   5.3694706899037205E-007
 chl          60   3.3077413406029395E-005   8.7953697303389997E-004   3.7607757740906807E-002
 chl2c          61   3.7805373434125003E-002   3.7805373434125003E-002  0.70794139999999994        1.9341676024809933E-004   1.4010174336629774E-016
 chl          61   3.3186833929295102E-005   8.7783378167451251E-004   3.7805373434125003E-002
 chl2c          62   3.7956103087269030E-002   3.7956103087269030E-002  0.76481592499999995        1.9341676024809933E-004   1.1440042637323782E-016
 chl          62   3.3319149510721922E-005   8.7783378167443108E-004   3.7956103087269030E-002
 chl2c          63   3.7855601011927406E-002   3.7855601011927406E-002  0.72597904999999996        1.9341676024809933E-004   2.0296270084135619E-006
 chl          63   3.3468225949463687E-005   8.8410235354389533E-004   3.7855601011927406E-002
 chl2c          64   2.5708982294816416E-002   2.5708982294816416E-002  0.48435739999999999        1.0715965730670109E-004   9.5455938707643870E-017
 chl          64   2.2568689479848616E-005   8.7785230940079018E-004   2.5708982294816416E-002
 chl2c          65   3.7953597170552002E-002   3.7953597170552002E-002  0.76379975000000000        1.9341676024809933E-004   1.2637223503678746E-016
 chl          65   3.3316949734958467E-005   8.7783378174253568E-004   3.7953597170552002E-002
 chl2c          66   3.1840477731474713E-002   3.1840477731474713E-002  0.35213202499999996        1.1514951721873222E-004   7.5837438613022077E-017
 chl          66   2.7951236908997517E-005   8.7785230940072762E-004   3.1840477731474713E-002
 chl2c          67   3.7937587124568600E-002   3.7937587124568600E-002  0.75736760000000003        1.9341676024809933E-004   1.3368300052326503E-016
 chl          67   3.3302895573165581E-005   8.7783378167449223E-004   3.7937587124568600E-002
 chl2c          68   3.7855407263856986E-002   3.7855407263856986E-002  0.72590779999999999        1.9341676024809933E-004   8.4193292280122057E-007
 chl          68   3.3331837123854858E-005   8.8050398960253505E-004   3.7855407263856986E-002
 chl2c          69   2.6977237954368623E-002   2.1732330561541505E-002  0.45524217500000003        1.9341676024809933E-004   2.7732662210675165E-006
 chl          69   2.3883248370992926E-005   8.8531110602912315E-004   2.6977237954368623E-002
 chl2c          70   3.2658010878182209E-002   3.2658010878182209E-002  0.48694062500000002        1.1514951721873222E-004   9.5533754609018482E-017
 chl          70   2.8668910269848380E-005   8.7785230940079018E-004   3.2658010878182209E-002
 chl2c          71   4.3481058864416305E-002   4.3481058864416305E-002  0.23986107500000001        7.6245369383059363E-005   8.3452498560070704E-017
 chl          71   3.8169947939317882E-005   8.7785230940075180E-004   4.3481058864416305E-002
 chl2c          72   3.7549776402781669E-002   3.7549776402781669E-002  0.62790522500000001        1.9341676024809933E-004   1.6071269002881579E-016
 chl          72   3.2962462223244550E-005   8.7783378174264464E-004   3.7549776402781669E-002
 chl2c          73   3.1852614277819484E-002   3.1852614277819484E-002  0.35362212500000001        1.1514951721873222E-004   9.2008801569784215E-017
 chl          73   2.7961891004236062E-005   8.7785230940077901E-004   3.1852614277819484E-002
 chl2c          74   3.7616827685877569E-002   3.7616827685877569E-002  0.64719590000000005        1.9341676024809933E-004   6.0625911772992000E-007
 chl          74   3.3093660010218506E-005   8.7975680157215412E-004   3.7616827685877569E-002
 chl2c          75   3.7826830779512356E-002   3.7826830779512356E-002  0.71554212500000003        1.9341676024809933E-004   1.2680042983515201E-016
 chl          75   3.3205669914514336E-005   8.7783378174253709E-004   3.7826830779512356E-002
 chl2c          76   3.7257729557919804E-002   3.7257729557919804E-002  0.55513977500000000        1.9341676024809933E-004   3.3475597951551564E-006
 chl          76   3.3056508796738367E-005   8.8723894850730671E-004   3.7257729557919804E-002
 chl2c          77   3.7138172437479272E-002   3.7138172437479272E-002  0.52973029999999999        1.9341676024809933E-004   6.8587706924327939E-009
 chl          77   3.2601948968929271E-005   8.7785550093541726E-004   3.7138172437479272E-002
 chl2c          78   5.2092028865596586E-002   4.7515248899399322E-002  0.45117492500000000        7.6245369383059363E-005   2.2451046493104259E-006
 chl          78   4.6036735017274154E-005   8.8375776524378066E-004   5.2092028865596586E-002
 prod   3.9901608900734741E-007   150.77811625463704        10.000000000000000     
 chl2c           1   3.7477407714772232E-002   3.7477407714772232E-002  0.60826437499999997        1.6346015205525937E-004   1.4216751019195183E-016
 chl           1   3.2541063287865920E-005   8.6828479534990398E-004   3.7477407714772232E-002
 chl2c           2   3.2640259920490348E-002   3.2640259920490348E-002  0.48302390000000001        9.9010407079913834E-005   1.6912868206146696E-006
 chl           2   2.8488324954888748E-005   8.7279712307084998E-004   3.2640259920490348E-002
 chl2c           3   3.7922212503796585E-002   3.7922212503796585E-002  0.75128689999999998        1.6346015205525937E-004   1.5331112244002299E-016
 chl           3   3.2927280523075836E-005   8.6828479534993694E-004   3.7922212503796585E-002
 chl2c           4   3.7976509103863923E-002   3.7976509103863923E-002  0.77318742499999993        1.6346015205525937E-004   3.0085133103634016E-006
 chl           4   3.3288193773960931E-005   8.7654696441211394E-004   3.7976509103863923E-002
 chl2c           5   5.3102694188226877E-002   2.5710500362372445E-002  0.48489679999999996        8.8418129793230084E-005   2.6363343784001261E-006
 chl           5   4.6472599802562088E-005   8.7514580028343059E-004   5.3102694188226877E-002
 chl2c           6   3.1261039902252048E-002   3.1261039902252048E-002  0.29222855000000003        9.9010407079913834E-005   1.0339646082263286E-016
 chl           6   2.7142858607874444E-005   8.6826473760135759E-004   3.1261039902252048E-002
 chl2c           7   4.3064391842467263E-002   4.3064391842467263E-002  0.22770740000000000        6.6126866667523524E-005   1.5785732598518895E-006
 chl           7   3.7569963757350461E-005   8.7241366126297975E-004   4.3064391842467263E-002
 chl2c           8   4.7969800906495587E-002   4.7969800906495587E-002  0.49578364999999996        6.6126866667523524E-005   7.4532922715180699E-017
 chl           8   4.1650486597896894E-005   8.6826473762281146E-004   4.7969800906495587E-002
 chl2c           9   2.4803669054600401E-002   2.4803669054600401E-002  0.28700202499999999        8.8418129793230084E-005   8.8458342393296653E-007
 chl           9   2.1599339719062236E-005   8.7081228472753506E-004   2.4803669054600401E-002
 chl2c          10   6.1478044257763084E-002   2.5387016219684602E-002  0.39094662499999999        8.8418129793230084E-005   3.2250379932566604E-006
 chl          10   5.3886301806003609E-005   8.7651294794074660E-004   6.1478044257763084E-002
 chl2c          11   2.1820572217820047E-002   2.1820572217820047E-002  0.49737575000000001        1.6346015205525937E-004   1.4123870187114564E-016
 chl          11   1.8946033411019595E-005   8.6826473760147663E-004   2.1820572217820047E-002
 chl2c          12   4.5290941298723353E-002   4.5290941298723353E-002  0.30768942500000002        6.6126866667523524E-005   7.3900316913925079E-017
 chl          12   3.9324527262450333E-005   8.6826473760126511E-004   4.5290941298723353E-002
 chl2c          13   3.7935816987997487E-002   3.7935816987997487E-002  0.75666275000000005        1.6346015205525937E-004   1.2750195428140665E-016
 chl          13   3.2939093087318030E-005   8.6828479528303364E-004   3.7935816987997487E-002
 chl2c          14   4.6856526101924839E-002   4.6856526101924839E-002  0.39804095000000000        6.6126866667523524E-005   8.1958675904844335E-017
 chl          14   4.0683869340795785E-005   8.6826473760129037E-004   4.6856526101924839E-002
 chl2c          15   3.8532961452438202E-002   2.0954299823745293E-002  0.25607262500000000        1.6346015205525937E-004   3.7071400377327656E-006
 chl          15   3.3823261025881253E-005   8.7777476090514857E-004   3.8532961452438202E-002
 chl2c          16   3.7823443882273475E-002   3.7823443882273475E-002  0.71433214999999994        1.6346015205525937E-004   1.5959930003983203E-016
 chl          16   3.2841521230750394E-005   8.6828479534995667E-004   3.7823443882273475E-002
 chl2c          17   3.7542254757581245E-002   3.7542254757581245E-002  0.62580860000000005        1.6346015205525937E-004   1.5951945455048985E-016
 chl          17   3.2597368989162358E-005   8.6828479534995645E-004   3.7542254757581245E-002
 chl2c          18   2.5694475239060960E-002   2.5694475239060960E-002  0.47925950000000000        8.8418129793230084E-005   1.4744107807061417E-016
 chl          18   2.2309606801251406E-005   8.6826473760149626E-004   2.5694475239060960E-002
 chl2c          19   3.7570220750293731E-002   3.7570220750293731E-002  0.63367130000000005        1.6346015205525937E-004   1.5337422288524234E-006
 chl          19   3.2799264669900128E-005   8.7301229577267507E-004   3.7570220750293731E-002
 chl2c          20   3.7020645196759419E-002   3.7020645196759419E-002  0.50678202500000002        1.6346015205525937E-004   1.4039216590154754E-016
 chl          20   3.2144463335915577E-005   8.6828479528307419E-004   3.7020645196759419E-002
 chl2c          21   3.7838475073783531E-002   3.7838475073783531E-002  0.71973185000000006        1.6346015205525937E-004   6.9335254226528268E-007
 chl          21   3.2936871826676991E-005   8.7045981008619904E-004   3.7838475073783531E-002
 chl2c          22   4.0824285303125013E-002   3.7613353106285476E-002  0.64616892500000001        1.6346015205525937E-004   3.5615894868866492E-006
 chl          22   3.5833356962746058E-005   8.7774609394088013E-004   4.0824285303125013E-002
 chl2c          23   3.2286562315070731E-002   3.2286562315070731E-002  0.41564179999999995        9.9010407079913834E-005   9.7641596451294553E-017
 chl          23   2.8033283556544189E-005   8.6826473760133959E-004   3.2286562315070731E-002
 chl2c          24   3.7348402796863071E-002   3.7348402796863071E-002  0.57597492500000003        1.6346015205525937E-004   1.1398037663661108E-016
 chl          24   3.2429050276620944E-005   8.6828479528299114E-004   3.7348402796863071E-002
 chl2c          25   4.5426679235459781E-002   4.5426679235459781E-002  0.31406487500000002        6.6126866667523524E-005   7.7645933759892076E-017
 chl          25   3.9442383726473854E-005   8.6826473760127682E-004   4.5426679235459781E-002
 chl2c          26   4.7955660680174553E-002   4.7955660680174553E-002  0.49427735000000000        6.6126866667523524E-005   7.1396369159572255E-017
 chl          26   4.1638209136966693E-005   8.6826473760125730E-004   4.7955660680174553E-002
 chl2c          27   4.5333133499525620E-002   4.5333133499525620E-002  0.30964730000000001        6.6126866667523524E-005   8.1337979431327689E-017
 chl          27   3.9361161262609791E-005   8.6826473760128842E-004   4.5333133499525620E-002
 chl2c          28   3.1209236063453518E-002   3.1209236063453518E-002  0.28776342500000002        9.9010407079913834E-005   8.0895375190825811E-017
 chl          28   2.7097879161371096E-005   8.6826473760128712E-004   3.1209236063453518E-002
 chl2c          29   3.7743217595736761E-002   3.7743217595736761E-002  0.68676297499999994        1.6346015205525937E-004   3.1958782633480228E-006
 chl          29   3.3096359612334522E-005   8.7688230417517132E-004   3.7743217595736761E-002
 chl2c          30   2.5380056985171612E-002   2.5380056985171612E-002  0.38930277499999999        8.8418129793230084E-005   1.6165224512859001E-016
 chl          30   2.2036608518542180E-005   8.6826473760154071E-004   2.5380056985171612E-002
 chl2c          31   3.7700414154041913E-002   3.7576959810037038E-002  0.63559385000000002        1.6346015205525937E-004   3.2755476754830278E-006
 chl          31   3.3063739331358842E-005   8.7701262899293731E-004   3.7700414154041913E-002
 chl2c          32   3.8762003505501304E-002   2.0893126428578448E-002  0.24722667500000001        1.6346015205525937E-004   3.7570846635479388E-006
 chl          32   3.4028216356449622E-005   8.7787558121499483E-004   3.8762003505501304E-002
 chl2c          33   3.7458922634011876E-002   3.7458922634011876E-002  0.60343137499999999        1.6346015205525937E-004   1.8410696775032842E-006
 chl          33   3.2733843351804177E-005   8.7385971218730592E-004   3.7458922634011876E-002
 chl2c          34   4.7475019509245139E-002   2.5350269098008315E-002  0.38241020000000003        8.8418129793230084E-005   2.3963220369612258E-006
 chl          34   4.1516055441109271E-005   8.7448211438911710E-004   4.7475019509245139E-002
 chl2c          35   2.5740370148566064E-002   2.5740370148566064E-002  0.49574644999999995        8.8418129793230084E-005   1.1667681388897223E-016
 chl          35   2.2349455732807610E-005   8.6826473760139944E-004   2.5740370148566064E-002
 chl2c          36   3.7770393924465726E-002   3.7770393924465726E-002  0.69587337500000002        1.6346015205525937E-004   1.2145788803158498E-016
 chl          36   3.2795458758987450E-005   8.6828479534983697E-004   3.7770393924465726E-002
 chl2c          37   2.1353674699533250E-002   2.1353674699533250E-002  0.33194060000000003        1.6346015205525937E-004   1.0681971908551625E-016
 chl          37   1.8540642759815223E-005   8.6826473760136865E-004   2.1353674699533250E-002
 chl2c          38   2.1543295686358745E-002   2.1543295686358745E-002  0.38455722500000000        1.6346015205525937E-004   1.6501088014508472E-016
 chl          38   1.8705283976188906E-005   8.6826473760155123E-004   2.1543295686358745E-002
 chl2c          39   2.5670077108751441E-002   2.5670077108751441E-002  0.47091117500000002        8.8418129793230084E-005   1.3279065114731761E-016
 chl          39   2.2288422765039062E-005   8.6826473760145018E-004   2.5670077108751441E-002
 chl2c          40   3.7687445774703773E-002   3.7687445774703773E-002  0.66875547499999999        1.6346015205525937E-004   1.5990758528766709E-016
 chl          40   3.2723436141751293E-005   8.6828479534995764E-004   3.7687445774703773E-002
 chl2c          41   2.5582381488167241E-002   2.5582381488167241E-002  0.44304987499999998        8.8418129793230084E-005   9.6178442870987505E-017
 chl          41   2.2212279750040787E-005   8.6826473760133526E-004   2.5582381488167241E-002
 chl2c          42   3.7949995630725070E-002   3.7949995630725070E-002  0.76234377499999995        1.6346015205525937E-004   1.3487181829628596E-016
 chl          42   3.2951404187217018E-005   8.6828479528305684E-004   3.7949995630725070E-002
 chl2c          43   2.1185090152268007E-002   2.1185090152268007E-002  0.29539925000000000        1.6346015205525937E-004   1.6430295204489038E-016
 chl          43   1.8394266742124144E-005   8.6826473760154906E-004   2.1185090152268007E-002
 chl2c          44   3.7536352708156646E-002   3.7536352708156646E-002  0.62417262500000004        1.6346015205525937E-004   1.1521290163187704E-016
 chl          44   3.2592244326872091E-005   8.6828479528299504E-004   3.7536352708156646E-002
 chl2c          45   4.6544927192009838E-002   4.6544927192009838E-002  0.37662252499999999        6.6126866667523524E-005   1.0858158967441935E-006
 chl          45   4.0562731683435352E-005   8.7147481219819326E-004   4.6544927192009838E-002
 chl2c          46   3.8460472994098757E-002   3.7083195475449568E-002  0.51876034999999998        1.6346015205525937E-004   3.3950863384855804E-006
 chl          46   3.3740140399828284E-005   8.7726795260695972E-004   3.8460472994098757E-002
 chl2c          47   3.7519784612651236E-002   3.7519784612651236E-002  0.61962282499999999        1.6346015205525937E-004   1.4715165293842272E-016
 chl          47   3.2577858501461703E-005   8.6828479528309522E-004   3.7519784612651236E-002
 chl2c          48   3.7823212136301673E-002   3.7823212136301673E-002  0.71424949999999998        1.6346015205525937E-004   1.4151547773923041E-016
 chl          48   3.2841320006717115E-005   8.6828479528307766E-004   3.7823212136301673E-002
 chl2c          49   3.7152990741888416E-002   3.7152990741888416E-002  0.53276120000000005        1.6346015205525937E-004   1.3169294176386613E-016
 chl          49   3.2259376960473514E-005   8.6828479528304676E-004   3.7152990741888416E-002
 chl2c          50   2.6434499204481297E-002   2.1533072915600981E-002  0.38132569999999999        1.6346015205525937E-004   2.3214206039973472E-006
 chl          50   2.3114788790120500E-005   8.7441750310147644E-004   2.6434499204481297E-002
 chl2c          51   2.0700971146093840E-002   2.0700971146093840E-002  0.22275920000000002        1.6346015205525937E-004   1.7539243184957818E-016
 chl          51   1.7973923280261126E-005   8.6826473760158375E-004   2.0700971146093840E-002
 chl2c          52   3.7581825176985564E-002   3.7581825176985564E-002  0.63698869999999996        1.6346015205525937E-004   1.5661153649155664E-016
 chl          52   3.2631727382676409E-005   8.6828479534994734E-004   3.7581825176985564E-002
 chl2c          53   3.7925801262726190E-002   3.7925801262726190E-002  0.75269794999999995        1.6346015205525937E-004   1.4024139200675169E-016
 chl          53   3.2930396587887034E-005   8.6828479534989595E-004   3.7925801262726190E-002
 chl2c          54   3.7082433371327092E-002   3.7082433371327092E-002  0.51861124999999997        1.6346015205525937E-004   1.1502772819793821E-016
 chl          54   3.2198113068418024E-005   8.6828479528299439E-004   3.7082433371327092E-002
 chl2c          55   4.0556266465665014E-002   3.7357235588660491E-002  0.57808280000000001        1.6346015205525937E-004   3.5647576659565846E-006
 chl          55   3.5597475895530602E-005   8.7773059499121966E-004   4.0556266465665014E-002
 chl2c          56   3.7507394187257688E-002   3.7507394187257688E-002  0.61626080000000005        1.6346015205525937E-004   1.5702567949967722E-016
 chl          56   3.2567100085992894E-005   8.6828479534994864E-004   3.7507394187257688E-002
 chl2c          57   3.7727617852646313E-002   3.7727617852646313E-002  0.68163462500000005        1.6346015205525937E-004   3.2250791321079916E-006
 chl          57   3.3084633470912319E-005   8.7693406989361987E-004   3.7727617852646313E-002
 chl2c          58   3.7765358178394853E-002   3.7765358178394853E-002  0.69416802499999997        1.6346015205525937E-004   1.4612324932908596E-006
 chl          58   3.2961784268578565E-005   8.7280475701765334E-004   3.7765358178394853E-002
 chl2c          59   3.7173699120809672E-002   3.7173699120809672E-002  0.53705127500000005        1.6346015205525937E-004   1.5973223886237910E-016
 chl          59   3.2277357731029067E-005   8.6828479528313469E-004   3.7173699120809672E-002
 chl2c          60   3.7607757740906807E-002   3.7607757740906807E-002  0.64452155000000000        1.6346015205525937E-004   7.4667011565407153E-007
 chl          60   3.2742322962856178E-005   8.7062683152847519E-004   3.7607757740906807E-002
 chl2c          61   3.7805373434125003E-002   3.7805373434125003E-002  0.70794139999999994        1.6346015205525937E-004   1.3725209018692299E-016
 chl          61   3.2825830932849029E-005   8.6828479528306432E-004   3.7805373434125003E-002
 chl2c          62   3.7956103087269030E-002   3.7956103087269030E-002  0.76481592499999995        1.6346015205525937E-004   1.1200382452852480E-016
 chl          62   3.2956707198869263E-005   8.6828479528298496E-004   3.7956103087269030E-002
 chl2c          63   3.7855601011927406E-002   3.7855601011927406E-002  0.72597904999999996        1.6346015205525937E-004   2.1285283542225060E-006
 chl          63   3.3108801981061864E-005   8.7460774881450336E-004   3.7855601011927406E-002
 chl2c          64   2.5708982294816416E-002   2.5708982294816416E-002  0.48435739999999999        8.8418129793230084E-005   9.3574536044932151E-017
 chl          64   2.2322202766205940E-005   8.6826473760132712E-004   2.5708982294816416E-002
 chl2c          65   3.7953597170552002E-002   3.7953597170552002E-002  0.76379975000000000        1.6346015205525937E-004   1.2376082790349591E-016
 chl          65   3.2954531352023175E-005   8.6828479534984424E-004   3.7953597170552002E-002
 chl2c          66   3.1840477731474713E-002   3.1840477731474713E-002  0.35213202499999996        9.9010407079913834E-005   7.7249696161853931E-017
 chl          66   2.7645964042618152E-005   8.6826473760127562E-004   3.1840477731474713E-002
 chl2c          67   3.7937587124568600E-002   3.7937587124568600E-002  0.75736760000000003        1.6346015205525937E-004   1.3094365963153490E-016
 chl          67   3.2940630069988709E-005   8.6828479528304437E-004   3.7937587124568600E-002
 chl2c          68   3.7855407263856986E-002   3.7855407263856986E-002  0.72590779999999999        1.6346015205525937E-004   1.1416780720718164E-006
 chl          68   3.3004297052371759E-005   8.7185159103764568E-004   3.7855407263856986E-002
 chl2c          69   3.0483470052374548E-002   2.1732330561541505E-002  0.45524217500000003        1.6346015205525937E-004   2.6702166980853937E-006
 chl          69   2.6683657609263842E-005   8.7534842862108098E-004   3.0483470052374548E-002
 chl2c          70   3.2658010878182209E-002   3.2658010878182209E-002  0.48694062500000002        9.9010407079913834E-005   9.7164640529411740E-017
 chl          70   2.8355799245726519E-005   8.6826473760133807E-004   3.2658010878182209E-002
 chl2c          71   4.3481058864416305E-002   4.3481058864416305E-002  0.23986107500000001        6.6126866667523524E-005   8.4981210802798087E-017
 chl          71   3.7753070165539092E-005   8.6826473760129980E-004   4.3481058864416305E-002
 chl2c          72   3.7549776402781669E-002   3.7549776402781669E-002  0.62790522500000001        1.6346015205525937E-004   1.5752141544326889E-016
 chl          72   3.2603899919325670E-005   8.6828479534995016E-004   3.7549776402781669E-002
 chl2c          73   3.1852614277819484E-002   3.1852614277819484E-002  0.35362212500000001        9.9010407079913834E-005   9.3662862124343505E-017
 chl          73   2.7656501777847220E-005   8.6826473760132712E-004   3.1852614277819484E-002
 chl2c          74   3.7616827685877569E-002   3.7616827685877569E-002  0.64719590000000005        1.6346015205525937E-004   8.5938539564211306E-007
 chl          74   3.2763468692384055E-005   8.7097904602637187E-004   3.7616827685877569E-002
 chl2c          75   3.7826830779512356E-002   3.7826830779512356E-002  0.71554212500000003        1.6346015205525937E-004   1.2418146204886380E-016
 chl          75   3.2844462022122125E-005   8.6828479534984554E-004   3.7826830779512356E-002
 chl2c          76   3.7257729557919804E-002   3.7257729557919804E-002  0.55513977500000000        1.6346015205525937E-004   3.2215647089986469E-006
 chl          76   3.2671004726482158E-005   8.7689199299417178E-004   3.7257729557919804E-002
 chl2c          77   3.7138172437479272E-002   3.7138172437479272E-002  0.52973029999999999        1.6346015205525937E-004   1.5029453326828380E-007
 chl          77   3.2264017953227577E-005   8.6875621054166964E-004   3.7138172437479272E-002
 chl2c          78   5.6731537209257756E-002   4.7515248899399322E-002  0.45117492500000000        6.6126866667523524E-005   2.1455210268595820E-006
 chl          78   4.9573351845571010E-005   8.7382352540028418E-004   5.6731537209257756E-002
 prod   4.0765788371188422E-007   124.75608993030653        10.000000000000000     
 chl2c           1   3.7477407714772232E-002   3.7477407714772232E-002  0.60826437499999997        1.3884876760458320E-004   1.3841535367502832E-016
 chl           1   3.2179147378205727E-005   8.5862788651526380E-004   3.7477407714772232E-002
 chl2c           2   3.5969002013152868E-002   3.2640259920490348E-002  0.48302390000000001        8.5377924330439384E-005   1.6590204807145260E-006
 chl           2   3.1039233484410549E-005   8.6294397250889429E-004   3.5969002013152868E-002
 chl2c           3   3.7922212503796585E-002   3.7922212503796585E-002  0.75128689999999998        1.3884876760458320E-004   1.4931256457961394E-016
 chl           3   3.2561069173917607E-005   8.5862788650999079E-004   3.7922212503796585E-002
 chl2c           4   4.2117869046092875E-002   3.7976509103863923E-002  0.77318742499999993        1.3884876760458320E-004   3.0924629623010136E-006
 chl           4   3.6506793241419909E-005   8.6677683530160727E-004   4.2117869046092875E-002
 chl2c           5   5.8918673509726578E-002   2.5710500362372445E-002  0.48489679999999996        7.4050818168228287E-005   2.4832179858847193E-006
 chl           5   5.0963830373110556E-005   8.6498604495393466E-004   5.8918673509726578E-002
 chl2c           6   3.1261039902252048E-002   3.1261039902252048E-002  0.29222855000000003        8.5377924330439384E-005   1.0511284569123440E-016
 chl           6   2.6840969051210234E-005   8.5860768340200377E-004   3.1261039902252048E-002
 chl2c           7   4.5288377901762232E-002   4.3064391842467263E-002  0.22770740000000000        5.7463734710935938E-005   1.6242678187082252E-006
 chl           7   3.9067218259737022E-005   8.6263231472940140E-004   4.5288377901762232E-002
 chl2c           8   4.7969800906495587E-002   4.7969800906495587E-002  0.49578364999999996        5.7463734710935938E-005   7.5905346078539970E-017
 chl           8   4.1187242502426889E-005   8.5860774329062789E-004   4.7969800906495587E-002
 chl2c           9   3.0974480993030937E-002   2.4803669054600401E-002  0.28700202499999999        7.4050818168228287E-005   1.2855890791935325E-006
 chl           9   2.6697775802008852E-005   8.6192810810988832E-004   3.0974480993030937E-002
 chl2c          10   6.8540532097977558E-002   2.5387016219684602E-002  0.39094662499999999        7.4050818168228287E-005   3.0772413879693134E-006
 chl          10   5.9378477560305347E-005   8.6632647490137360E-004   6.8540532097977558E-002
 chl2c          11   2.1820572217820047E-002   2.1820572217820047E-002  0.49737575000000001        1.3884876760458320E-004   1.3791570026365796E-016
 chl          11   1.8735310962450816E-005   8.5860768340210569E-004   2.1820572217820047E-002
 chl2c          12   4.5290941298723353E-002   4.5290941298723353E-002  0.30768942500000002        5.7463734710935938E-005   7.5262931143499455E-017
 chl          12   3.8887150187588801E-005   8.5860768340191107E-004   4.5290941298723353E-002
 chl2c          13   3.7935816987997487E-002   3.7935816987997487E-002  0.75666275000000005        1.3884876760458320E-004   1.2408432153674295E-016
 chl          13   3.2572750360943267E-005   8.5862788644433205E-004   3.7935816987997487E-002
 chl2c          14   4.6856526101924839E-002   4.6856526101924839E-002  0.39804095000000000        5.7463734710935938E-005   8.3381717162405247E-017
 chl          14   4.0231373328636046E-005   8.5860768340193622E-004   4.6856526101924839E-002
 chl2c          15   4.2584286339918891E-002   2.0954299823745293E-002  0.25607262500000000        1.3884876760458320E-004   3.5460953003495736E-006
 chl          15   3.6943569156389175E-005   8.6753993859368592E-004   4.2584286339918891E-002
 chl2c          16   3.7823443882273475E-002   3.7823443882273475E-002  0.71433214999999994        1.3884876760458320E-004   1.5546464494131614E-016
 chl          16   3.2476263681166439E-005   8.5862788651000998E-004   3.7823443882273475E-002
 chl2c          17   3.7542254757581245E-002   3.7542254757581245E-002  0.62580860000000005        1.3884876760458320E-004   1.5538651432411217E-016
 chl          17   3.2234826857322341E-005   8.5862788651000965E-004   3.7542254757581245E-002
 chl2c          18   2.5694475239060960E-002   2.5694475239060960E-002  0.47925950000000000        7.4050818168228287E-005   1.4401453292751222E-016
 chl          18   2.2061473861243387E-005   8.5860768340212477E-004   2.5694475239060960E-002
 chl2c          19   3.7570220750293731E-002   3.7570220750293731E-002  0.63367130000000005        1.3884876760458320E-004   1.7085580174370109E-006
 chl          19   3.2448899103812932E-005   8.6368667672944777E-004   3.7570220750293731E-002
 chl2c          20   3.7020645196759419E-002   3.7020645196759419E-002  0.50678202500000002        1.3884876760458320E-004   1.3667988371663161E-016
 chl          20   3.1786958340100504E-005   8.5862788644437118E-004   3.7020645196759419E-002
 chl2c          21   3.7838475073783531E-002   3.7838475073783531E-002  0.71973185000000006        1.3884876760458320E-004   9.6225440992231976E-007
 chl          21   3.2601689494355235E-005   8.6160156905856354E-004   3.7838475073783531E-002
 chl2c          22   4.5967822356433111E-002   3.7613353106285476E-002  0.64616892500000001        1.3884876760458320E-004   3.4357000685612599E-006
 chl          22   3.9882937287349949E-005   8.6762729324219132E-004   4.5967822356433111E-002
 chl2c          23   3.2286562315070731E-002   3.2286562315070731E-002  0.41564179999999995        8.5377924330439384E-005   9.9350835610468146E-017
 chl          23   2.7721490474356734E-005   8.5860768340198577E-004   3.2286562315070731E-002
 chl2c          24   3.7348402796863071E-002   3.7348402796863071E-002  0.57597492500000003        1.3884876760458320E-004   1.1088159365990826E-016
 chl          24   3.2068380155540590E-005   8.5862788644429106E-004   3.7348402796863071E-002
 chl2c          25   4.5426679235459781E-002   4.5426679235459781E-002  0.31406487500000002        5.7463734710935938E-005   7.9066169805406425E-017
 chl          25   3.9003695823000360E-005   8.5860768340192289E-004   4.5426679235459781E-002
 chl2c          26   4.7955660680174553E-002   4.7955660680174553E-002  0.49427735000000000        5.7463734710935938E-005   7.2719849212770438E-017
 chl          26   4.1175098722612413E-005   8.5860768340190327E-004   4.7955660680174553E-002
 chl2c          27   4.5333133499525620E-002   4.5333133499525620E-002  0.30964730000000001        5.7463734710935938E-005   8.2752048230469534E-017
 chl          27   3.8923376735378313E-005   8.5860768340193427E-004   4.5333133499525620E-002
 chl2c          28   3.1209236063453518E-002   3.1209236063453518E-002  0.28776342500000002        8.5377924330439384E-005   8.2303029384030138E-017
 chl          28   2.6796489877185884E-005   8.5860768340193286E-004   3.1209236063453518E-002
 chl2c          29   4.1175803237108143E-002   3.7743217595736761E-002  0.68676297499999994        1.3884876760458320E-004   3.0409277014903215E-006
 chl          29   3.5684001432480239E-005   8.6662550884548072E-004   4.1175803237108143E-002
 chl2c          30   2.5380056985171612E-002   2.5380056985171612E-002  0.38930277499999999        7.4050818168228287E-005   1.5800088728773747E-016
 chl          30   2.1791511932653212E-005   8.5860768340216814E-004   2.5380056985171612E-002
 chl2c          31   4.0750604397293749E-002   3.7576959810037038E-002  0.63559385000000002        1.3884876760458320E-004   3.0228962364164630E-006
 chl          31   3.5313097095773471E-005   8.6656621706741161E-004   4.0750604397293749E-002
 chl2c          32   4.3532332579139230E-002   2.0893126428578448E-002  0.24722667500000001        1.3884876760458320E-004   3.6680929603766192E-006
 chl          32   3.7777582795402786E-005   8.6780515899820786E-004   4.3532332579139230E-002
 chl2c          33   3.7458922634011876E-002   3.7458922634011876E-002  0.60343137499999999        1.3884876760458320E-004   1.9845704650868712E-006
 chl          33   3.2377604447762864E-005   8.6434959072647526E-004   3.7458922634011876E-002
 chl2c          34   5.0170153141704241E-002   2.5350269098008315E-002  0.38241020000000003        7.4050818168228287E-005   2.1380742378201040E-006
 chl          34   4.3350891815577383E-005   8.6407732687468508E-004   5.0170153141704241E-002
 chl2c          35   2.5740370148566064E-002   2.5740370148566064E-002  0.49574644999999995        7.4050818168228287E-005   1.1379698823080409E-016
 chl          35   2.2100879583171101E-005   8.5860768340203098E-004   2.5740370148566064E-002
 chl2c          36   3.7770393924465726E-002   3.7770393924465726E-002  0.69587337500000002        1.3884876760458320E-004   1.1818153730269610E-016
 chl          36   3.2430713508010155E-005   8.5862788650989429E-004   3.7770393924465726E-002
 chl2c          37   2.1353674699533250E-002   2.1353674699533250E-002  0.33194060000000003        1.3884876760458320E-004   1.0413292777430890E-016
 chl          37   1.8334429165886162E-005   8.5860768340200095E-004   2.1353674699533250E-002
 chl2c          38   2.1543295686358745E-002   2.1543295686358745E-002  0.38455722500000000        1.3884876760458320E-004   1.6130888765442786E-016
 chl          38   1.8497239202112625E-005   8.5860768340217844E-004   2.1543295686358745E-002
 chl2c          39   2.5670077108751441E-002   2.5670077108751441E-002  0.47091117500000002        7.4050818168228287E-005   1.2961406606833740E-016
 chl          39   2.2040525439097840E-005   8.5860768340207999E-004   2.5670077108751441E-002
 chl2c          40   3.7687445774703773E-002   3.7687445774703773E-002  0.66875547499999999        1.3884876760458320E-004   1.5576631222218864E-016
 chl          40   3.2359491913494537E-005   8.5862788651001084E-004   3.7687445774703773E-002
 chl2c          41   2.5582381488167241E-002   2.5582381488167241E-002  0.44304987499999998        7.4050818168228287E-005   9.3710016088544795E-017
 chl          41   2.1965229305460678E-005   8.5860768340196853E-004   2.5582381488167241E-002
 chl2c          42   3.7949995630725070E-002   3.7949995630725070E-002  0.76234377499999995        1.3884876760458320E-004   1.3128461530637757E-016
 chl          42   3.2584924538981951E-005   8.5862788644435438E-004   3.7949995630725070E-002
 chl2c          43   2.1185090152268007E-002   2.1185090152268007E-002  0.29539925000000000        1.3884876760458320E-004   1.6061155356016814E-016
 chl          43   1.8189681178305180E-005   8.5860768340218039E-004   2.1185090152268007E-002
 chl2c          44   3.7536352708156646E-002   3.7536352708156646E-002  0.62417262500000004        1.3884876760458320E-004   1.1208463784374581E-016
 chl          44   3.2229759190632126E-005   8.5862788644429486E-004   3.7536352708156646E-002
 chl2c          45   4.6544927192009838E-002   4.6544927192009838E-002  0.37662252499999999        5.7463734710935938E-005   7.6650453028786299E-007
 chl          45   4.0071195532865679E-005   8.6091434556469833E-004   4.6544927192009838E-002
 chl2c          46   4.2341377865878146E-002   3.7083195475449568E-002  0.51876034999999998        1.3884876760458320E-004   3.2007720585759328E-006
 chl          46   3.6709103879884848E-005   8.6697943548662347E-004   4.2341377865878146E-002
 chl2c          47   3.7519784612651236E-002   3.7519784612651236E-002  0.61962282499999999        1.3884876760458320E-004   1.4328846283779314E-016
 chl          47   3.2215533361809541E-005   8.5862788644439168E-004   3.7519784612651236E-002
 chl2c          48   3.7823212136301673E-002   3.7823212136301673E-002  0.71424949999999998        1.3884876760458320E-004   1.3777794608397889E-016
 chl          48   3.2476064695129921E-005   8.5862788644437455E-004   3.7823212136301673E-002
 chl2c          49   3.7152990741888416E-002   3.7152990741888416E-002  0.53276120000000005        1.3884876760458320E-004   1.2817851696317706E-016
 chl          49   3.1900593915793955E-005   8.5862788644434473E-004   3.7152990741888416E-002
 chl2c          50   3.2281739499577473E-002   2.1533072915600981E-002  0.38132569999999999        1.3884876760458320E-004   2.4484143188651122E-006
 chl          50   2.7923342515192787E-005   8.6498878152332112E-004   3.2281739499577473E-002
 chl2c          51   2.0700971146093840E-002   2.0700971146093840E-002  0.22275920000000002        1.3884876760458320E-004   1.7153987322164453E-016
 chl          51   1.7774012879923625E-005   8.5860768340220999E-004   2.0700971146093840E-002
 chl2c          52   3.7581825176985564E-002   3.7581825176985564E-002  0.63698869999999996        1.3884876760458320E-004   1.5254128279931846E-016
 chl          52   3.2268803122903457E-005   8.5862788651000087E-004   3.7581825176985564E-002
 chl2c          53   3.7925801262726190E-002   3.7925801262726190E-002  0.75269794999999995        1.3884876760458320E-004   1.3653250407448732E-016
 chl          53   3.2564150582411031E-005   8.5862788650995132E-004   3.7925801262726190E-002
 chl2c          54   3.7082433371327092E-002   3.7082433371327092E-002  0.51861124999999997        1.3884876760458320E-004   1.1190388822603360E-016
 chl          54   3.1840011389833941E-005   8.5862788644429421E-004   3.7082433371327092E-002
 chl2c          55   4.5448603685352730E-002   3.7357235588660491E-002  0.57808280000000001        1.3884876760458320E-004   3.4244716940762042E-006
 chl          55   3.9429988206345650E-005   8.6757314876657529E-004   4.5448603685352730E-002
 chl2c          56   3.7507394187257688E-002   3.7507394187257688E-002  0.61626080000000005        1.3884876760458320E-004   1.5294647044470714E-016
 chl          56   3.2204894599502602E-005   8.5862788651000206E-004   3.7507394187257688E-002
 chl2c          57   3.9033317672813116E-002   3.7727617852646313E-002  0.68163462500000005        1.3884876760458320E-004   2.8744683973028170E-006
 chl          57   3.3810462030077463E-005   8.6619493411974578E-004   3.9033317672813116E-002
 chl2c          58   3.7765358178394853E-002   3.7765358178394853E-002  0.69416802499999997        1.3884876760458320E-004   1.7518122846239304E-006
 chl          58   3.2621685807152710E-005   8.6379919006872340E-004   3.7765358178394853E-002
 chl2c          59   3.7173699120809672E-002   3.7173699120809672E-002  0.53705127500000005        1.3884876760458320E-004   1.5559472934084059E-016
 chl          59   3.1918374707422014E-005   8.5862788644443103E-004   3.7173699120809672E-002
 chl2c          60   3.7607757740906807E-002   3.7607757740906807E-002  0.64452155000000000        1.3884876760458320E-004   9.7568658200220277E-007
 chl          60   3.2404411399080746E-005   8.6164167569697300E-004   3.7607757740906807E-002
 chl2c          61   3.7805373434125003E-002   3.7805373434125003E-002  0.70794139999999994        1.3884876760458320E-004   1.3361075247632333E-016
 chl          61   3.2460747887982566E-005   8.5862788644436164E-004   3.7805373434125003E-002
 chl2c          62   3.7956103087269030E-002   3.7956103087269030E-002  0.76481592499999995        1.3884876760458320E-004   1.0895249401018071E-016
 chl          62   3.2590168571483213E-005   8.5862788644428521E-004   3.7956103087269030E-002
 chl2c          63   3.7855601011927406E-002   3.7855601011927406E-002  0.72597904999999996        1.3884876760458320E-004   2.1850167122091336E-006
 chl          63   3.2737937635888042E-005   8.6481093314495490E-004   3.7855601011927406E-002
 chl2c          64   2.5708982294816416E-002   2.5708982294816416E-002  0.48435739999999999        7.4050818168228287E-005   9.1161136793800911E-017
 chl          64   2.2073929730774343E-005   8.5860768340196062E-004   2.5708982294816416E-002
 chl2c          65   3.7953597170552002E-002   3.7953597170552002E-002  0.76379975000000000        1.3884876760458320E-004   1.2043040901371572E-016
 chl          65   3.2588016923999237E-005   8.5862788650990134E-004   3.7953597170552002E-002
 chl2c          66   3.1840477731474713E-002   3.1840477731474713E-002  0.35213202499999996        8.5377924330439384E-005   7.8663888624783019E-017
 chl          66   2.7338478823431976E-005   8.5860768340192159E-004   3.1840477731474713E-002
 chl2c          67   3.7937587124568600E-002   3.7937587124568600E-002  0.75736760000000003        1.3884876760458320E-004   1.2744646932379028E-016
 chl          67   3.2574270249566435E-005   8.5862788644434245E-004   3.7937587124568600E-002
 chl2c          68   3.7855407263856986E-002   3.7855407263856986E-002  0.72590779999999999        1.3884876760458320E-004   1.4647536488911764E-006
 chl          68   3.2671170277579193E-005   8.6305161241185429E-004   3.7855407263856986E-002
 chl2c          69   3.3960511209025560E-002   2.1732330561541505E-002  0.45524217500000003        1.3884876760458320E-004   2.5477463345609852E-006
 chl          69   2.9385104341866979E-005   8.6527273282203737E-004   3.3960511209025560E-002
 chl2c          70   3.2658010878182209E-002   3.2658010878182209E-002  0.48694062500000002        8.5377924330439384E-005   9.8799056632964540E-017
 chl          70   2.8040419064632821E-005   8.5860768340198404E-004   3.2658010878182209E-002
 chl2c          71   4.3481058864416305E-002   4.3481058864416305E-002  0.23986107500000001        5.7463734710935938E-005   8.6511103996667608E-017
 chl          71   3.7333171223440133E-005   8.5860768340194598E-004   4.3481058864416305E-002
 chl2c          72   3.7549776402781669E-002   3.7549776402781669E-002  0.62790522500000001        1.3884876760458320E-004   1.5343149873511278E-016
 chl          72   3.2241285151643629E-005   8.5862788651000358E-004   3.7549776402781669E-002
 chl2c          73   3.1852614277819484E-002   3.1852614277819484E-002  0.35362212500000001        8.5377924330439384E-005   9.5317091277672484E-017
 chl          73   2.7348899355375203E-005   8.5860768340197320E-004   3.1852614277819484E-002
 chl2c          74   3.7616827685877569E-002   3.7616827685877569E-002  0.64719590000000005        1.3884876760458320E-004   1.1389969354610113E-006
 chl          74   3.2430504643101462E-005   8.6212758061139758E-004   3.7616827685877569E-002
 chl2c          75   3.7826830779512356E-002   3.7826830779512356E-002  0.71554212500000003        1.3884876760458320E-004   1.2084119899087800E-016
 chl          75   3.2479171765580429E-005   8.5862788650990264E-004   3.7826830779512356E-002
 chl2c          76   4.0971576612077058E-002   3.7257729557919804E-002  0.55513977500000000        1.3884876760458320E-004   3.0710850453095846E-006
 chl          76   3.5508606901290453E-005   8.6666440096971268E-004   4.0971576612077058E-002
 chl2c          77   3.7138172437479272E-002   3.7138172437479272E-002  0.52973029999999999        1.3884876760458320E-004   3.3632916446372082E-007
 chl          77   3.1926627666418534E-005   8.5967148006988825E-004   3.7138172437479272E-002
 chl2c          78   5.9693211019445101E-002   4.7515248899399322E-002  0.45117492500000000        5.7463734710935938E-005   1.9766158230842355E-006
 chl          78   5.1554531752259428E-005   8.6365820956533070E-004   5.9693211019445101E-002
 prod   4.1636328555376606E-007   104.37713789724667        10.000000000000000     
 chl2c           1   3.7477407714772232E-002   3.7477407714772232E-002  0.60826437499999997        1.1839969886113589E-004   1.4425917337321252E-016
 chl           1   2.8898102838644064E-005   7.7108062165285468E-004   3.7477407714772232E-002
 chl2c           2   4.5540338854241851E-002   3.2640259920490348E-002  0.48302390000000001        7.3763894885437066E-005   1.8544579235142313E-006
 chl           2   3.5303684714330323E-005   7.7521787502119041E-004   4.5540338854241851E-002
 chl2c           3   3.7922212503796585E-002   3.7922212503796585E-002  0.75128689999999998        1.1839969886113589E-004   1.5561409394425794E-016
 chl           3   2.9241082632473516E-005   7.7108060690145763E-004   3.7922212503796585E-002
 chl2c           4   5.2466292270893500E-002   3.7976509103863923E-002  0.77318742499999993        1.1839969886113589E-004   3.3321036475544593E-006
 chl           4   4.0867417207191829E-005   7.7892710611578077E-004   5.2466292270893500E-002
 chl2c           5   6.7713161778768682E-002   2.5710500362372445E-002  0.48489679999999996        6.2668487106967477E-005   2.4661208710821452E-006
 chl           5   5.2582075222851913E-005   7.7654142623921770E-004   6.7713161778768682E-002
 chl2c           6   3.1261039902252048E-002   3.1261039902252048E-002  0.29222855000000003        7.3763894885437066E-005   1.2602083632438988E-016
 chl           6   2.4099045376495077E-005   7.7089711192745633E-004   3.1261039902252048E-002
 chl2c           7   5.7112681828558672E-002   4.3064391842467263E-002  0.22770740000000000        5.0000493717186982E-005   1.9058486747497603E-006
 chl           7   4.4263646950426437E-005   7.7502308652389017E-004   5.7112681828558672E-002
 chl2c           8   4.7969800906495587E-002   4.7969800906495587E-002  0.49578364999999996        5.0000493717186982E-005   5.9552171963136284E-008
 chl           8   3.6987766861343026E-005   7.7106358922441373E-004   4.7969800906495587E-002
 chl2c           9   4.6931659790912045E-002   2.4803669054600401E-002  0.28700202499999999        6.2668487106967477E-005   1.7580512707292471E-006
 chl           9   3.6366382986710688E-005   7.7487954077756186E-004   4.6931659790912045E-002
 chl2c          10   7.9375780888172209E-002   2.5387016219684602E-002  0.39094662499999999        6.2668487106967477E-005   3.1208139815534315E-006
 chl          10   6.1741033604375702E-005   7.7783214115850969E-004   7.9375780888172209E-002
 chl2c          11   2.1820572217820047E-002   2.1820572217820047E-002  0.49737575000000001        1.1839969886113589E-004   1.4369785380727602E-016
 chl          11   1.6821416103323042E-005   7.7089711192750566E-004   2.1820572217820047E-002
 chl2c          12   4.5290941298723353E-002   4.5290941298723353E-002  0.30768942500000002        5.0000493717186982E-005   8.8638317791213985E-017
 chl          12   3.4914655843657070E-005   7.7089711192735203E-004   4.5290941298723353E-002
 chl2c          13   3.7935816987997487E-002   3.7935816987997487E-002  0.75666275000000005        1.1839969886113589E-004   1.2932500320070149E-016
 chl          13   2.9251572784339864E-005   7.7108060684694807E-004   3.7935816987997487E-002
 chl2c          14   4.6856526101924839E-002   4.6856526101924839E-002  0.39804095000000000        5.0000493717186982E-005   1.0057348005204928E-016
 chl          14   3.6121560646924002E-005   7.7089711192738532E-004   4.6856526101924839E-002
 chl2c          15   4.9270196436197573E-002   2.0954299823745293E-002  0.25607262500000000        1.1839969886113589E-004   3.6117062009517077E-006
 chl          15   3.8379782551117520E-005   7.7896548678910605E-004   4.9270196436197573E-002
 chl2c          16   3.7823443882273475E-002   3.7823443882273475E-002  0.71433214999999994        1.1839969886113589E-004   1.6202417834617212E-016
 chl          16   2.9164924063847333E-005   7.7108060690147552E-004   3.7823443882273475E-002
 chl2c          17   3.7542254757581245E-002   3.7542254757581245E-002  0.62580860000000005        1.1839969886113589E-004   1.6194277303827541E-016
 chl          17   2.8948104582925546E-005   7.7108060690147531E-004   3.7542254757581245E-002
 chl2c          18   2.5694475239060960E-002   2.5694475239060960E-002  0.47925950000000000        6.2668487106967477E-005   1.5004528930537933E-016
 chl          18   1.9807796754285353E-005   7.7089711192752334E-004   2.5694475239060960E-002
 chl2c          19   3.7570220750293731E-002   3.7570220750293731E-002  0.63367130000000005        1.1839969886113589E-004   1.9661514380536474E-006
 chl          19   2.9154616375601840E-005   7.7600332905613557E-004   3.7570220750293731E-002
 chl2c          20   3.7020645196759419E-002   3.7020645196759419E-002  0.50678202500000002        1.1839969886113589E-004   1.4245073244893387E-016
 chl          20   2.8545901564184160E-005   7.7108060684698461E-004   3.7020645196759419E-002
 chl2c          21   3.7838475073783531E-002   3.7838475073783531E-002  0.71973185000000006        1.1839969886113589E-004   1.3038288874776366E-006
 chl          21   2.9309737001230918E-005   7.7460143264436768E-004   3.7838475073783531E-002
 chl2c          22   5.4561154009158563E-002   3.7613353106285476E-002  0.64616892500000001        1.1839969886113589E-004   3.5279006633998340E-006
 chl          22   4.2521529749292659E-005   7.7933706721370027E-004   5.4561154009158563E-002
 chl2c          23   3.2286562315070731E-002   3.2286562315070731E-002  0.41564179999999995        7.3763894885437066E-005   1.1596386641420091E-016
 chl          23   2.4889617642752967E-005   7.7089711192742825E-004   3.2286562315070731E-002
 chl2c          24   3.7348402796863071E-002   3.7348402796863071E-002  0.57597492500000003        1.1839969886113589E-004   1.1556563040970275E-016
 chl          24   2.8798629093367996E-005   7.7108060684690969E-004   3.7348402796863071E-002
 chl2c          25   4.5426679235459781E-002   4.5426679235459781E-002  0.31406487500000002        5.0000493717186982E-005   9.2985384207573888E-017
 chl          25   3.5019295827066712E-005   7.7089711192736418E-004   4.5426679235459781E-002
 chl2c          26   4.7955660680174553E-002   4.7955660680174553E-002  0.49427735000000000        5.0000493717186982E-005   8.5724703352563969E-017
 chl          26   3.6968880318914250E-005   7.7089711192734390E-004   4.7955660680174553E-002
 chl2c          27   4.5333133499525620E-002   4.5333133499525620E-002  0.30964730000000001        5.0000493717186982E-005   9.9831738960819559E-017
 chl          27   3.4947181689402810E-005   7.7089711192738326E-004   4.5333133499525620E-002
 chl2c          28   3.1209236063453518E-002   3.1209236063453518E-002  0.28776342500000002        7.3763894885437066E-005   9.9302646904602460E-017
 chl          28   2.4059109946776206E-005   7.7089711192738174E-004   3.1209236063453518E-002
 chl2c          29   4.8520754075760668E-002   3.7743217595736761E-002  0.68676297499999994        1.1839969886113589E-004   3.0907899182760304E-006
 chl          29   3.7766181800564095E-005   7.7835108954810747E-004   4.8520754075760668E-002
 chl2c          30   2.5380056985171612E-002   2.5380056985171612E-002  0.38930277499999999        6.2668487106967477E-005   1.6459735526493779E-016
 chl          30   1.9565412630425793E-005   7.7089711192756399E-004   2.5380056985171612E-002
 chl2c          31   4.6098411637350581E-002   3.7576959810037038E-002  0.63559385000000002        1.1839969886113589E-004   2.9424277064745323E-006
 chl          31   3.5864424949577325E-005   7.7799697811103507E-004   4.6098411637350581E-002
 chl2c          32   5.0698387980121058E-002   2.0893126428578448E-002  0.24722667500000001        1.1839969886113589E-004   3.7755916066635929E-006
 chl          32   3.9508168908227305E-005   7.7927860198865771E-004   5.0698387980121058E-002
 chl2c          33   3.7458922634011876E-002   3.7458922634011876E-002  0.60343137499999999        1.1839969886113589E-004   2.2238622483284627E-006
 chl          33   2.9085086674544309E-005   7.7645283498185000E-004   3.7458922634011876E-002
 chl2c          34   5.3862666108729973E-002   2.5350269098008315E-002  0.38241020000000003        6.2668487106967477E-005   1.9644379577909214E-006
 chl          34   4.1764596421574694E-005   7.7539044089029144E-004   5.3862666108729973E-002
 chl2c          35   2.5740370148566064E-002   2.5740370148566064E-002  0.49574644999999995        6.2668487106967477E-005   1.1858616446518849E-016
 chl          35   1.9843177007472759E-005   7.7089711192743573E-004   2.5740370148566064E-002
 chl2c          36   3.7770393924465726E-002   3.7770393924465726E-002  0.69587337500000002        1.1839969886113589E-004   1.2317345402217807E-016
 chl          36   2.9124018270180749E-005   7.7108060690136732E-004   3.7770393924465726E-002
 chl2c          37   2.1353674699533250E-002   2.1353674699533250E-002  0.33194060000000003        1.1839969886113589E-004   1.0852045694867648E-016
 chl          37   1.6461486154907540E-005   7.7089711192740776E-004   2.1353674699533250E-002
 chl2c          38   2.1543295686358745E-002   2.1543295686358745E-002  0.38455722500000000        1.1839969886113589E-004   1.6803819197298690E-016
 chl          38   1.6607664426015711E-005   7.7089711192757353E-004   2.1543295686358745E-002
 chl2c          39   2.5670077108751441E-002   2.5670077108751441E-002  0.47091117500000002        6.2668487106967477E-005   1.3505611837964250E-016
 chl          39   1.9788988306092242E-005   7.7089711192748159E-004   2.5670077108751441E-002
 chl2c          40   3.7687445774703773E-002   3.7687445774703773E-002  0.66875547499999999        1.1839969886113589E-004   1.6233848893939563E-016
 chl          40   2.9060058560525068E-005   7.7108060690147639E-004   3.7687445774703773E-002
 chl2c          41   2.5582381488167241E-002   2.5582381488167241E-002  0.44304987499999998        6.2668487106967477E-005   9.7662386463007613E-017
 chl          41   1.9721384005452531E-005   7.7089711192737751E-004   2.5582381488167241E-002
 chl2c          42   3.7949995630725070E-002   3.7949995630725070E-002  0.76234377499999995        1.1839969886113589E-004   1.3682848582075088E-016
 chl          42   2.9262505660779310E-005   7.7108060684696899E-004   3.7949995630725070E-002
 chl2c          43   2.1185090152268007E-002   2.1185090152268007E-002  0.29539925000000000        1.1839969886113589E-004   1.6731288784488829E-016
 chl          43   1.6331524814554740E-005   7.7089711193918805E-004   2.1185090152268007E-002
 chl2c          44   3.7536352708156646E-002   3.7536352708156646E-002  0.62417262500000004        1.1839969886113589E-004   1.1681943022710667E-016
 chl          44   2.8943553625025202E-005   7.7108060684691327E-004   3.7536352708156646E-002
 chl2c          45   4.6544927192009838E-002   4.6544927192009838E-002  0.37662252499999999        5.0000493717186982E-005   5.2722549461214685E-007
 chl          45   3.5948848207190752E-005   7.7234728628734284E-004   4.6544927192009838E-002
 chl2c          46   4.9035522411149904E-002   3.7083195475449568E-002  0.51876034999999998        1.1839969886113589E-004   3.2059346657998595E-006
 chl          46   3.8176827048917376E-005   7.7855450848090830E-004   4.9035522411149904E-002
 chl2c          47   3.7519784612651236E-002   3.7519784612651236E-002  0.61962282499999999        1.1839969886113589E-004   1.4933707113436765E-016
 chl          47   2.8930778287891992E-005   7.7108060684700380E-004   3.7519784612651236E-002
 chl2c          48   3.7823212136301673E-002   3.7823212136301673E-002  0.71424949999999998        1.1839969886113589E-004   1.4359496716296068E-016
 chl          48   2.9164745366961851E-005   7.7108060684698786E-004   3.7823212136301673E-002
 chl2c          49   3.7152990741888416E-002   3.7152990741888416E-002  0.53276120000000005        1.1839969886113589E-004   1.3359163306765540E-016
 chl          49   2.8647950647434808E-005   7.7108060684696000E-004   3.7152990741888416E-002
 chl2c          50   4.0225315983943917E-002   2.1533072915600981E-002  0.38132569999999999        1.1839969886113589E-004   2.6621586549677680E-006
 chl          50   3.1258176435494949E-005   7.7707721296637580E-004   4.0225315983943917E-002
 chl2c          51   2.0700971146093840E-002   2.0700971146093840E-002  0.22275920000000002        1.1839969886113589E-004   1.7867749003162399E-016
 chl          51   1.5958318870620387E-005   7.7089711192760313E-004   2.0700971146093840E-002
 chl2c          52   3.7581825176985564E-002   3.7581825176985564E-002  0.63698869999999996        1.1839969886113589E-004   1.5897825505916148E-016
 chl          52   2.8978616565934863E-005   7.7108060690146707E-004   3.7581825176985564E-002
 chl2c          53   3.7925801262726190E-002   3.7925801262726190E-002  0.75269794999999995        1.1839969886113589E-004   1.4229715504409285E-016
 chl          53   2.9243849854885573E-005   7.7108060690142055E-004   3.7925801262726190E-002
 chl2c          54   3.7082433371327092E-002   3.7082433371327092E-002  0.51861124999999997        1.1839969886113589E-004   1.1663105530008798E-016
 chl          54   2.8593545227323100E-005   7.7108060684691272E-004   3.7082433371327092E-002
 chl2c          55   5.3733679529360215E-002   3.7357235588660491E-002  0.57808280000000001        1.1839969886113589E-004   3.5070074372374058E-006
 chl          55   4.1872591956775259E-005   7.7926157902318926E-004   5.3733679529360215E-002
 chl2c          56   3.7507394187257688E-002   3.7507394187257688E-002  0.61626080000000005        1.1839969886113589E-004   1.5940043423932555E-016
 chl          56   2.8921224273203256E-005   7.7108060690146815E-004   3.7507394187257688E-002
 chl2c          57   4.2390139420278562E-002   3.7727617852646313E-002  0.68163462500000005        1.1839969886113589E-004   2.6759013581847435E-006
 chl          57   3.2953829843463200E-005   7.7739375935382681E-004   4.2390139420278562E-002
 chl2c          58   3.7765358178394853E-002   3.7765358178394853E-002  0.69416802499999997        1.1839969886113589E-004   2.1344639372662297E-006
 chl          58   2.9317761373938038E-005   7.7631360559186771E-004   3.7765358178394853E-002
 chl2c          59   3.7173699120809672E-002   3.7173699120809672E-002  0.53705127500000005        1.1839969886113589E-004   1.6215971486408048E-016
 chl          59   2.8663918476940947E-005   7.7108060685020751E-004   3.7173699120809672E-002
 chl2c          60   3.7607757740906807E-002   3.7607757740906807E-002  0.64452155000000000        1.1839969886113589E-004   1.2687259262399573E-006
 chl          60   2.9127748784442105E-005   7.7451436975087707E-004   3.7607757740906807E-002
 chl2c          61   3.7805373434125003E-002   3.7805373434125003E-002  0.70794139999999994        1.1839969886113589E-004   1.3925250583363269E-016
 chl          61   2.9150990289661641E-005   7.7108060684697572E-004   3.7805373434125003E-002
 chl2c          62   3.7956103087269030E-002   3.7956103087269030E-002  0.76481592499999995        1.1839969886113589E-004   1.1355513062380710E-016
 chl          62   2.9267215002075056E-005   7.7108060684690416E-004   3.7956103087269030E-002
 chl2c          63   3.7855601011927406E-002   3.7855601011927406E-002  0.72597904999999996        1.1839969886113589E-004   2.3544896464754349E-006
 chl          63   2.9401857767431064E-005   7.7668447948210444E-004   3.7855601011927406E-002
 chl2c          64   2.5708982294816416E-002   2.5708982294816416E-002  0.48435739999999999        6.2668487106967477E-005   9.5006815078812217E-017
 chl          64   1.9818980201665863E-005   7.7089711192736992E-004   2.5708982294816416E-002
 chl2c          65   3.7953597170552002E-002   3.7953597170552002E-002  0.76379975000000000        1.1839969886113589E-004   1.2551712252932235E-016
 chl          65   2.9265282740359698E-005   7.7108060690137903E-004   3.7953597170552002E-002
 chl2c          66   3.1840477731474713E-002   3.1840477731474713E-002  0.35213202499999996        7.3763894885437066E-005   9.2526163799357089E-017
 chl          66   2.4545732325581368E-005   7.7089711192736287E-004   3.1840477731474713E-002
 chl2c          67   3.7937587124568600E-002   3.7937587124568600E-002  0.75736760000000003        1.1839969886113589E-004   1.3282876087710006E-016
 chl          67   2.9252937702321692E-005   7.7108060684695783E-004   3.7937587124568600E-002
 chl2c          68   3.7855407263856986E-002   3.7855407263856986E-002  0.72590779999999999        1.1839969886113589E-004   1.8777837554388203E-006
 chl          68   2.9369934989550199E-005   7.7584517278702172E-004   3.7855407263856986E-002
 chl2c          69   3.9935920334887111E-002   2.1732330561541505E-002  0.45524217500000003        1.1839969886113589E-004   2.5915423914907339E-006
 chl          69   3.1028397103615807E-005   7.7695460235857161E-004   3.9935920334887111E-002
 chl2c          70   3.2658010878182209E-002   3.2658010878182209E-002  0.48694062500000002        7.3763894885437066E-005   1.1865725980201700E-016
 chl          70   2.5175966267285449E-005   7.7089711192743584E-004   3.2658010878182209E-002
 chl2c          71   4.3481058864416305E-002   4.3481058864416305E-002  0.23986107500000001        5.0000493717186982E-005   1.0145927968495128E-016
 chl          71   3.3519422702123272E-005   7.7089711192738781E-004   4.3481058864416305E-002
 chl2c          72   3.7549776402781669E-002   3.7549776402781669E-002  0.62790522500000001        1.1839969886113589E-004   1.5990580043524494E-016
 chl          72   2.8953904377671369E-005   7.7108060690146956E-004   3.7549776402781669E-002
 chl2c          73   3.1852614277819484E-002   3.1852614277819484E-002  0.35362212500000001        7.3763894885437066E-005   1.1142196308767804E-016
 chl          73   2.4555088354109003E-005   7.7089711192741557E-004   3.1852614277819484E-002
 chl2c          74   3.7616827685877569E-002   3.7616827685877569E-002  0.64719590000000005        1.1839969886113589E-004   1.4952631833107282E-006
 chl          74   2.9154637195285148E-005   7.7504242087459785E-004   3.7616827685877569E-002
 chl2c          75   3.7826830779512356E-002   3.7826830779512356E-002  0.71554212500000003        1.1839969886113589E-004   1.2594522580334762E-016
 chl          75   2.9167535634622004E-005   7.7108060690137513E-004   3.7826830779512356E-002
 chl2c          76   4.8325653981848127E-002   3.7257729557919804E-002  0.55513977500000000        1.1839969886113589E-004   3.1336607669084157E-006
 chl          76   3.7617033753651725E-005   7.7840713273701935E-004   4.8325653981848127E-002
 chl2c          77   3.7138172437479272E-002   3.7138172437479272E-002  0.52973029999999999        1.1839969886113589E-004   5.7587820988867627E-007
 chl          77   2.8696107783504741E-005   7.7268497344110208E-004   3.7138172437479272E-002
 chl2c          78   6.9769249199629679E-002   4.7515248899399322E-002  0.45117492500000000        5.0000493717186982E-005   2.0633179183047961E-006
 chl          78   5.4112043413864354E-005   7.7558586389591777E-004   6.9769249199629679E-002
 prod   5.0453825037838608E-007   88.010945402853949        10.000000000000000     
 chl2c           1   3.7477407714772232E-002   3.7477407714772232E-002  0.60826437499999997        1.0127131693766117E-004   1.6578250801843996E-008
 chl           1   2.5609046612755012E-005   6.8331958303137540E-004   3.7477407714772232E-002
 chl2c           2   5.6038169445167624E-002   3.2640259920490348E-002  0.48302390000000001        6.3819092997459268E-005   2.0228320716476108E-006
 chl           2   3.8511493185524013E-005   6.8723681674161111E-004   5.6038169445167624E-002
 chl2c           3   3.7922212503796585E-002   3.7922212503796585E-002  0.75128689999999998        1.0127131693766117E-004   1.6109745438660709E-016
 chl           3   2.5911435409294580E-005   6.8327857734304018E-004   3.7922212503796585E-002
 chl2c           4   6.3350755218227611E-002   3.7976509103863923E-002  0.77318742499999993        1.0127131693766117E-004   3.4940942026449077E-006
 chl           4   4.3745721716387318E-005   6.9053196865126822E-004   6.3350755218227611E-002
 chl2c           5   7.6996563398889398E-002   2.5710500362372445E-002  0.48489679999999996        5.3431648579435374E-005   2.4453176409468521E-006
 chl           5   5.2974664308959490E-005   6.8801336021347159E-004   7.6996563398889398E-002
 chl2c           6   3.1261039902252048E-002   3.1261039902252048E-002  0.29222855000000003        6.3819092997459268E-005   1.4552898963898171E-016
 chl           6   2.1354256633422486E-005   6.8309489064322917E-004   3.1261039902252048E-002
 chl2c           7   6.9126027078348959E-002   4.3064391842467263E-002  0.22770740000000000        4.3548132832757330E-005   2.1612554998835189E-006
 chl           7   4.7497280223557130E-005   6.8711138526336354E-004   6.9126027078348959E-002
 chl2c           8   4.7969800906495587E-002   4.7969800906495587E-002  0.49578364999999996        4.3548132832757330E-005   2.1540843657330524E-007
 chl           8   3.2793420759731252E-005   6.8362636784032797E-004   4.7969800906495587E-002
 chl2c           9   6.1064337139927455E-002   2.4803669054600401E-002  0.28700202499999999        5.3431648579435374E-005   2.0722994250703012E-006
 chl           9   4.1960720881188014E-005   6.8715592187688923E-004   6.1064337139927455E-002
 chl2c          10   9.0746487477105980E-002   2.5387016219684602E-002  0.39094662499999999        5.3431648579435374E-005   3.1572210060613241E-006
 chl          10   6.2544221013018721E-005   6.8921919461398132E-004   9.0746487477105980E-002
 chl2c          11   2.1820572217820047E-002   2.1820572217820047E-002  0.49737575000000001        1.0127131693766117E-004   1.4861123440201968E-016
 chl          11   1.4905521392904643E-005   6.8309489064323709E-004   2.1820572217820047E-002
 chl2c          12   4.5290941298723353E-002   4.5290941298723353E-002  0.30768942500000002        4.3548132832757330E-005   1.0127036956270497E-016
 chl          12   3.0938010593575402E-005   6.8309489064312010E-004   4.5290941298723353E-002
 chl2c          13   3.7935816987997487E-002   3.7935816987997487E-002  0.75666275000000005        1.0127131693766117E-004   1.3391504461814682E-016
 chl          13   2.5920731060221985E-005   6.8327857729867908E-004   3.7935816987997487E-002
 chl2c          14   4.6856526101924839E-002   4.6856526101924839E-002  0.39804095000000000        4.3548132832757330E-005   1.1681069612206310E-016
 chl          14   3.2007453573512639E-005   6.8309489064315827E-004   4.6856526101924839E-002
 chl2c          15   5.6510397396909086E-002   2.0954299823745293E-002  0.25607262500000000        1.0127131693766117E-004   3.6717206642448018E-006
 chl          15   3.9006906165565319E-005   6.9026069471064908E-004   5.6510397396909086E-002
 chl2c          16   3.7823443882273475E-002   3.7823443882273475E-002  0.71433214999999994        1.0127131693766117E-004   1.6772299329359720E-016
 chl          16   2.5843948926094755E-005   6.8327857734305655E-004   3.7823443882273475E-002
 chl2c          17   3.7542254757581245E-002   3.7542254757581245E-002  0.62580860000000005        1.0127131693766117E-004   1.6763885777979711E-016
 chl          17   2.5651818421010703E-005   6.8327857734305634E-004   3.7542254757581245E-002
 chl2c          18   2.5694475239060960E-002   2.5694475239060960E-002  0.47925950000000000        5.3431648579435374E-005   1.5515581350308679E-016
 chl          18   1.7551764753562125E-005   6.8309489064325324E-004   2.5694475239060960E-002
 chl2c          19   3.9593338921982059E-002   3.7570220750293731E-002  0.63367130000000005        1.0127131693766117E-004   2.1384504209592518E-006
 chl          19   2.7230300340826860E-005   6.8774953267981929E-004   3.9593338921982059E-002
 chl2c          20   3.7020645196759419E-002   3.7020645196759419E-002  0.50678202500000002        1.0127131693766117E-004   1.4748870988378269E-016
 chl          20   2.5295413780722198E-005   6.8327857729871269E-004   3.7020645196759419E-002
 chl2c          21   3.7838475073783531E-002   3.7838475073783531E-002  0.71973185000000006        1.0127131693766117E-004   1.5477330564610124E-006
 chl          21   2.5987027874838062E-005   6.8678845604016507E-004   3.7838475073783531E-002
 chl2c          22   6.4200139030749614E-002   3.7613353106285476E-002  0.64616892500000001        1.0127131693766117E-004   3.6094315251650389E-006
 chl          22   4.4344429112698290E-005   6.9072169908321952E-004   6.4200139030749614E-002
 chl2c          23   3.2286562315070731E-002   3.2286562315070731E-002  0.41564179999999995        6.3819092997459268E-005   1.3138391853676092E-016
 chl          23   2.2054785753857917E-005   6.8309489064319426E-004   3.2286562315070731E-002
 chl2c          24   3.7348402796863071E-002   3.7348402796863071E-002  0.57597492500000003        1.0127131693766117E-004   1.1968215318753738E-016
 chl          24   2.5519363527417293E-005   6.8327857729864395E-004   3.7348402796863071E-002
 chl2c          25   4.5426679235459781E-002   4.5426679235459781E-002  0.31406487500000002        4.3548132832757330E-005   1.0609483681149450E-016
 chl          25   3.1030732484627029E-005   6.8309489064313192E-004   4.5426679235459781E-002
 chl2c          26   4.7955660680174553E-002   4.7955660680174553E-002  0.49427735000000000        4.3548132832757330E-005   9.8029537180615669E-017
 chl          26   3.2758266788042023E-005   6.8309489064311208E-004   4.7955660680174553E-002
 chl2c          27   4.5333133499525620E-002   4.5333133499525620E-002  0.30964730000000001        4.3548132832757330E-005   1.1596891215940342E-016
 chl          27   3.0966831870370055E-005   6.8309489064315621E-004   4.5333133499525620E-002
 chl2c          28   3.1209236063453518E-002   3.1209236063453518E-002  0.28776342500000002        6.3819092997459268E-005   1.1536829215350372E-016
 chl          28   2.1318869695821183E-005   6.8309489064315480E-004   3.1209236063453518E-002
 chl2c          29   5.6894541071502228E-002   3.7743217595736761E-002  0.68676297499999994        1.0127131693766117E-004   3.1411168301511549E-006
 chl          29   3.9245684191107071E-005   6.8979700779702303E-004   5.6894541071502228E-002
 chl2c          30   2.5380056985171612E-002   2.5380056985171612E-002  0.38930277499999999        5.3431648579435374E-005   1.7015200560496532E-016
 chl          30   1.7336987250806277E-005   6.8309489064329021E-004   2.5380056985171612E-002
 chl2c          31   5.2248676391594244E-002   3.7576959810037038E-002  0.63559385000000002        1.0127131693766117E-004   2.8826096239812470E-006
 chl          31   3.6013028147784920E-005   6.8926201838825311E-004   5.2248676391594244E-002
 chl2c          32   5.8246713564356317E-002   2.0893126428578448E-002  0.24722667500000001        1.0127131693766117E-004   3.8584018774025085E-006
 chl          32   4.0223143879992214E-005   6.9056503652433529E-004   5.8246713564356317E-002
 chl2c          33   4.3663672923312628E-002   3.7458922634011876E-002  0.60343137499999999        1.0127131693766117E-004   2.3833991369289975E-006
 chl          33   3.0051253936976346E-005   6.8824384036029118E-004   4.3663672923312628E-002
 chl2c          34   5.7847928539774489E-002   2.5350269098008315E-002  0.38241020000000003        5.3431648579435374E-005   1.8209072455612882E-006
 chl          34   3.9728208676474134E-005   6.8676977169818999E-004   5.7847928539774489E-002
 chl2c          35   2.5740370148566064E-002   2.5740370148566064E-002  0.49574644999999995        5.3431648579435374E-005   1.2270032054356519E-016
 chl          35   1.7583115331749529E-005   6.8309489064317290E-004   2.5740370148566064E-002
 chl2c          36   3.7770393924465726E-002   3.7770393924465726E-002  0.69587337500000002        1.0127131693766117E-004   1.2755228650530005E-016
 chl          36   2.5807701026392025E-005   6.8327857734295746E-004   3.7770393924465726E-002
 chl2c          37   2.1353674699533250E-002   2.1353674699533250E-002  0.33194060000000003        1.0127131693766117E-004   1.1230604871516870E-016
 chl          37   1.4586586083707010E-005   6.8309489064314742E-004   2.1353674699533250E-002
 chl2c          38   2.1543295686358745E-002   2.1543295686358745E-002  0.38455722500000000        1.0127131693766117E-004   1.7369621422547732E-016
 chl          38   1.4716115210969482E-005   6.8309489064329900E-004   2.1543295686358745E-002
 chl2c          39   2.5670077108751441E-002   2.5670077108751441E-002  0.47091117500000002        5.3431648579435374E-005   1.3969787117234394E-016
 chl          39   1.7535098515405463E-005   6.8309489064321497E-004   2.5670077108751441E-002
 chl2c          40   3.7687445774703773E-002   3.7687445774703773E-002  0.66875547499999999        1.0127131693766117E-004   1.6804784391919827E-016
 chl          40   2.5751024332633210E-005   6.8327857734305731E-004   3.7687445774703773E-002
 chl2c          41   2.5582381488167241E-002   2.5582381488167241E-002  0.44304987499999998        5.3431648579435374E-005   1.0108859690141788E-016
 chl          41   1.7475194085050170E-005   6.8309489064311967E-004   2.5582381488167241E-002
 chl2c          42   3.7949995630725070E-002   3.7949995630725070E-002  0.76234377499999995        1.0127131693766117E-004   1.4167505542211350E-016
 chl          42   2.5930419023053642E-005   6.8327857729869827E-004   3.7949995630725070E-002
 chl2c          43   2.1185090152268007E-002   2.1185090152268007E-002  0.29539925000000000        1.0127131693766117E-004   1.7294917327450056E-016
 chl          43   1.4471427524931234E-005   6.8309492293484387E-004   2.1185090152268007E-002
 chl2c          44   3.7536352708156646E-002   3.7536352708156646E-002  0.62417262500000004        1.0127131693766117E-004   1.2097926549890552E-016
 chl          44   2.5647785675409497E-005   6.8327857729864720E-004   3.7536352708156646E-002
 chl2c          45   4.6544927192009838E-002   4.6544927192009838E-002  0.37662252499999999        4.3548132832757330E-005   3.5591408728068408E-007
 chl          45   3.1835357888335310E-005   6.8397051642182707E-004   4.6544927192009838E-002
 chl2c          46   5.6577393278609632E-002   3.7083195475449568E-002  0.51876034999999998        1.0127131693766117E-004   3.2155276179684116E-006
 chl          46   3.9031841483024001E-005   6.8988405476398782E-004   5.6577393278609632E-002
 chl2c          47   3.7519784612651236E-002   3.7519784612651236E-002  0.61962282499999999        1.0127131693766117E-004   1.5460853588634970E-016
 chl          47   2.5636465050687124E-005   6.8327857729873014E-004   3.7519784612651236E-002
 chl2c          48   3.7823212136301673E-002   3.7823212136301673E-002  0.71424949999999998        1.0127131693766117E-004   1.4867181423804229E-016
 chl          48   2.5843790577359721E-005   6.8327857729871561E-004   3.7823212136301673E-002
 chl2c          49   3.7152990741888416E-002   3.7152990741888416E-002  0.53276120000000005        1.0127131693766117E-004   1.3832769096944563E-016
 chl          49   2.5385842656508920E-005   6.8327857729869003E-004   3.7152990741888416E-002
 chl2c          50   4.8170937557856321E-002   2.1533072915600981E-002  0.38132569999999999        1.0127131693766117E-004   2.7918469816777968E-006
 chl          50   3.3179650979560258E-005   6.8878981107040765E-004   4.8170937557856321E-002
 chl2c          51   2.0700971146093840E-002   2.0700971146093840E-002  0.22275920000000002        1.0127131693766117E-004   1.8465104425561982E-016
 chl          51   1.4140727621251616E-005   6.8309489064332588E-004   2.0700971146093840E-002
 chl2c          52   3.7581825176985564E-002   3.7581825176985564E-002  0.63698869999999996        1.0127131693766117E-004   1.6457480954293397E-016
 chl          52   2.5678856040885869E-005   6.8327857734304875E-004   3.7581825176985564E-002
 chl2c          53   3.7925801262726190E-002   3.7925801262726190E-002  0.75269794999999995        1.0127131693766117E-004   1.4732991324427654E-016
 chl          53   2.5913887531389142E-005   6.8327857734300625E-004   3.7925801262726190E-002
 chl2c          54   3.7082433371327092E-002   3.7082433371327092E-002  0.51861124999999997        1.0127131693766117E-004   1.2078438523647473E-016
 chl          54   2.5337632316732233E-005   6.8327857729864666E-004   3.7082433371327092E-002
 chl2c          55   6.3060495588563859E-002   3.7357235588660491E-002  0.57808280000000001        1.0127131693766117E-004   3.5840812919893829E-006
 chl          55   4.3552169101041003E-005   6.9064108511286855E-004   6.3060495588563859E-002
 chl2c          56   3.7507394187257688E-002   3.7507394187257688E-002  0.61626080000000005        1.0127131693766117E-004   1.6501117535258954E-016
 chl          56   2.5627998940114411E-005   6.8327857734304983E-004   3.7507394187257688E-002
 chl2c          57   4.6544253194441311E-002   3.7727617852646313E-002  0.68163462500000005        1.0127131693766117E-004   2.5295230591955786E-006
 chl          57   3.2048331634726647E-005   6.8855614678879661E-004   4.6544253194441311E-002
 chl2c          58   4.4278787677869975E-002   3.7765358178394853E-002  0.69416802499999997        1.0127131693766117E-004   2.3948451871718135E-006
 chl          58   3.0476346320306421E-005   6.8828321457270036E-004   4.4278787677869975E-002
 chl2c          59   3.7173699120809672E-002   3.7173699120809672E-002  0.53705127500000005        1.0127131693766117E-004   1.6786307515020562E-016
 chl          59   2.5399992575558314E-005   6.8327858610496767E-004   3.7173699120809672E-002
 chl2c          60   3.7607757740906807E-002   3.7607757740906807E-002  0.64452155000000000        1.0127131693766117E-004   1.4745708930523790E-006
 chl          60   2.5823479019772229E-005   6.8665298254895555E-004   3.7607757740906807E-002
 chl2c          61   3.7805373434125003E-002   3.7805373434125003E-002  0.70794139999999994        1.0127131693766117E-004   1.4418168582709219E-016
 chl          61   2.5831601774315170E-005   6.8327857729870445E-004   3.7805373434125003E-002
 chl2c          62   3.7956103087269030E-002   3.7956103087269030E-002  0.76481592499999995        1.0127131693766117E-004   1.1760213311689060E-016
 chl          62   2.5934592117269657E-005   6.8327857729863885E-004   3.7956103087269030E-002
 chl2c          63   4.5709791224058438E-002   3.7855601011927406E-002  0.72597904999999996        1.0127131693766117E-004   2.4700681860512348E-006
 chl          63   3.1468535479396119E-005   6.8844189913589630E-004   4.5709791224058438E-002
 chl2c          64   2.5708982294816416E-002   2.5708982294816416E-002  0.48435739999999999        5.3431648579435374E-005   9.8344374069590960E-017
 chl          64   1.7561674449223348E-005   6.8309489064311295E-004   2.5708982294816416E-002
 chl2c          65   3.7953597170552002E-002   3.7953597170552002E-002  0.76379975000000000        1.0127131693766117E-004   1.2997651784865291E-016
 chl          65   2.5932879880283998E-005   6.8327857735722567E-004   3.7953597170552002E-002
 chl2c          66   3.1840477731474713E-002   3.1840477731474713E-002  0.35213202499999996        6.3819092997459268E-005   1.0558579399703575E-016
 chl          66   2.1750067654006759E-005   6.8309489064313073E-004   3.1840477731474713E-002
 chl2c          67   3.7937587124568600E-002   3.7937587124568600E-002  0.75736760000000003        1.0127131693766117E-004   1.3753873989374918E-016
 chl          67   2.5921940556620260E-005   6.8327857729868807E-004   3.7937587124568600E-002
 chl2c          68   4.0382021867551958E-002   3.7855407263856986E-002  0.72590779999999999        1.0127131693766117E-004   2.1652208185052657E-006
 chl          68   2.7775422032910789E-005   6.8781652696862830E-004   4.0382021867551958E-002
 chl2c          69   4.6644927913851733E-002   2.1732330561541505E-002  0.45524217500000003        1.0127131693766117E-004   2.6315276737649873E-006
 chl          69   3.2115727028517650E-005   6.8851488178590426E-004   4.6644927913851733E-002
 chl2c          70   3.2658010878182209E-002   3.2658010878182209E-002  0.48694062500000002        6.3819092997459268E-005   1.3725064897187671E-016
 chl          70   2.2308520369456598E-005   6.8309489064320879E-004   3.2658010878182209E-002
 chl2c          71   4.3481058864416305E-002   4.3481058864416305E-002  0.23986107500000001        4.3548132832757330E-005   1.1546234072095438E-016
 chl          71   2.9701689150037044E-005   6.8309489064315501E-004   4.3481058864416305E-002
 chl2c          72   3.7549776402781669E-002   3.7549776402781669E-002  0.62790522500000001        1.0127131693766117E-004   1.6553351811029049E-016
 chl          72   2.5656957800042332E-005   6.8327857734305113E-004   3.7549776402781669E-002
 chl2c          73   3.1852614277819484E-002   3.1852614277819484E-002  0.35362212500000001        6.3819092997459268E-005   1.2641350289024081E-016
 chl          73   2.1758358066806559E-005   6.8309489064318201E-004   3.1852614277819484E-002
 chl2c          74   3.7616827685877569E-002   3.7616827685877569E-002  0.64719590000000005        1.0127131693766117E-004   1.7461888552919384E-006
 chl          74   2.5847149119745071E-005   6.8711666320147538E-004   3.7616827685877569E-002
 chl2c          75   3.7826830779512356E-002   3.7826830779512356E-002  0.71554212500000003        1.0127131693766117E-004   1.3041932448027522E-016
 chl          75   2.5846263120418265E-005   6.8327857734296451E-004   3.7826830779512356E-002
 chl2c          76   5.6727948143047741E-002   3.7257729557919804E-002  0.55513977500000000        1.0127131693766117E-004   3.1993926529955126E-006
 chl          76   3.9134842714225274E-005   6.8986882119446839E-004   5.6727948143047741E-002
 chl2c          77   3.7138172437479272E-002   3.7138172437479272E-002  0.52973029999999999        1.0127131693766117E-004   7.5977908200763340E-007
 chl          77   2.5444912783973174E-005   6.8514175884149214E-004   3.7138172437479272E-002
 chl2c          78   7.9831158440714534E-002   4.7515248899399322E-002  0.45117492500000000        4.3548132832757330E-005   2.1119361854447845E-006
 chl          78   5.4868453780723843E-005   6.8730624548648026E-004   7.9831158440714534E-002
 prod   5.9262703375628942E-007   74.635811824085323        10.000000000000000     
 chl2c           1   3.7477407714772232E-002   3.7477407714772232E-002  0.60826437499999997        8.6840084801261271E-005   1.4164136609036901E-007
 chl           1   2.0479573462389027E-005   5.4645117448496108E-004   3.7477407714772232E-002
 chl2c           2   5.0590544863194351E-002   3.2640259920490348E-002  0.48302390000000001        5.5277692361630931E-005   1.5618477655384033E-006
 chl           2   2.7746451753498120E-005   5.4845133272490658E-004   5.0590544863194351E-002
 chl2c           3   3.7922212503796585E-002   3.7922212503796585E-002  0.75128689999999998        8.6840084801261271E-005   1.4680693256987725E-016
 chl           3   2.0712041365063201E-005   5.4617175522102290E-004   3.7922212503796585E-002
 chl2c           4   6.7423505716441332E-002   3.7976509103863923E-002  0.77318742499999993        8.6840084801261271E-005   3.2072063511142633E-006
 chl           4   3.7182819649166787E-005   5.5148155311804999E-004   6.7423505716441332E-002
 chl2c           5   7.7593467369449290E-002   2.5710500362372445E-002  0.48489679999999996        4.5805458964872000E-005   2.1156496829531024E-006
 chl           5   4.2620808070818763E-005   5.4928345794738598E-004   7.7593467369449290E-002
 chl2c           6   3.1261039902252048E-002   3.1261039902252048E-002  0.29222855000000003        5.5277692361630931E-005   1.3422839256499709E-016
 chl           6   1.7064923532172104E-005   5.4588470458856193E-004   3.1261039902252048E-002
 chl2c           7   6.5615051173762581E-002   4.3064391842467263E-002  0.22770740000000000        3.7958539038806305E-005   1.7494341258801210E-006
 chl           7   3.5990399576773266E-005   5.4850829090208352E-004   6.5615051173762581E-002
 chl2c           8   4.7969800906495587E-002   4.7969800906495587E-002  0.49578364999999996        3.7958539038806305E-005   3.1667504817152003E-007
 chl           8   2.6215838332856001E-005   5.4650713235097285E-004   4.7969800906495587E-002
 chl2c           9   6.9380091808876984E-002   2.4803669054600401E-002  0.28700202499999999        4.5805458964872000E-005   2.0955807997381759E-006
 chl           9   3.8097735314381573E-005   5.4911624244214502E-004   6.9380091808876984E-002
 chl2c          10   9.3417103299847953E-002   2.5387016219684602E-002  0.39094662499999999        4.5805458964872000E-005   2.8112601990004246E-006
 chl          10   5.1400574332931307E-005   5.5022659146202585E-004   9.3417103299847953E-002
 chl2c          11   2.1820572217820047E-002   2.1820572217820047E-002  0.49737575000000001        8.6840084801261271E-005   1.3602511765045185E-016
 chl          11   1.1911516619078156E-005   5.4588470458856550E-004   2.1820572217820047E-002
 chl2c          12   4.5290941298723353E-002   4.5290941298723353E-002  0.30768942500000002        3.7958539038806305E-005   8.3037541467189777E-017
 chl          12   2.4723632111386919E-005   5.4588470458846088E-004   4.5290941298723353E-002
 chl2c          13   3.7935816987997487E-002   3.7935816987997487E-002  0.75666275000000005        8.6840084801261271E-005   1.2189239432393152E-016
 chl          13   2.0719471748789344E-005   5.4617175518705127E-004   3.7935816987997487E-002
 chl2c          14   4.6856526101924839E-002   4.6856526101924839E-002  0.39804095000000000        3.7958539038806305E-005   1.0649270354298101E-016
 chl          14   2.5578260909192917E-005   5.4588470458850717E-004   4.6856526101924839E-002
 chl2c          15   5.8612359736564187E-002   2.0954299823745293E-002  0.25607262500000000        8.6840084801261271E-005   3.3003719473277363E-006
 chl          15   3.2295985440844927E-005   5.5100981407335667E-004   5.8612359736564187E-002
 chl2c          16   3.7823443882273475E-002   3.7823443882273475E-002  0.71433214999999994        8.6840084801261271E-005   1.5288886232166790E-016
 chl          16   2.0658096733685621E-005   5.4617175522103493E-004   3.7823443882273475E-002
 chl2c          17   3.7542254757581245E-002   3.7542254757581245E-002  0.62580860000000005        8.6840084801261271E-005   1.5281160721302147E-016
 chl          17   2.0504519175903395E-005   5.4617175522103482E-004   3.7542254757581245E-002
 chl2c          18   2.5694475239060960E-002   2.5694475239060960E-002  0.47925950000000000        4.5805458964872000E-005   1.4208940341779733E-016
 chl          18   1.4026221025433312E-005   5.4588470458857754E-004   2.5694475239060960E-002
 chl2c          19   4.3345919652979951E-002   3.7570220750293731E-002  0.63367130000000005        8.6840084801261271E-005   2.0202775922390255E-006
 chl          19   2.3820309319971508E-005   5.4953983006181077E-004   4.3345919652979951E-002
 chl2c          20   3.7020645196759419E-002   3.7020645196759419E-002  0.50678202500000002        8.6840084801261271E-005   1.3432606023170617E-016
 chl          20   2.0219630765272083E-005   5.4617175518707588E-004   3.7020645196759419E-002
 chl2c          21   3.7838475073783531E-002   3.7838475073783531E-002  0.71973185000000006        8.6840084801261271E-005   1.5773909394602669E-006
 chl          21   2.0769822796249489E-005   5.4890750104884397E-004   3.7838475073783531E-002
 chl2c          22   6.7036602699535403E-002   3.7613353106285476E-002  0.64616892500000001        8.6840084801261271E-005   3.2476596108001900E-006
 chl          22   3.6971645125170450E-005   5.5151430168502084E-004   6.7036602699535403E-002
 chl2c          23   3.2286562315070731E-002   3.2286562315070731E-002  0.41564179999999995        5.5277692361630931E-005   1.0904355141761811E-016
 chl          23   1.7624740531540974E-005   5.4588470458851216E-004   3.2286562315070731E-002
 chl2c          24   3.7348402796863071E-002   3.7348402796863071E-002  0.57597492500000003        8.6840084801261271E-005   1.0887084151349008E-016
 chl          24   2.0398642708994718E-005   5.4617175518702557E-004   3.7348402796863071E-002
 chl2c          25   4.5426679235459781E-002   4.5426679235459781E-002  0.31406487500000002        3.7958539038806305E-005   8.7161694620168810E-017
 chl          25   2.4797729374884101E-005   5.4588470458846901E-004   4.5426679235459781E-002
 chl2c          26   4.7955660680174553E-002   4.7955660680174553E-002  0.49427735000000000        3.7958539038806305E-005   8.0276075125847546E-017
 chl          26   2.6178261663741295E-005   5.4588470458845546E-004   4.7955660680174553E-002
 chl2c          27   4.5333133499525620E-002   4.5333133499525620E-002  0.30964730000000001        3.7958539038806305E-005   1.0568923195467156E-016
 chl          27   2.4746664188459833E-005   5.4588470458850566E-004   4.5333133499525620E-002
 chl2c          28   3.1209236063453518E-002   3.1209236063453518E-002  0.28776342500000002        5.5277692361630931E-005   1.0511627727804320E-016
 chl          28   1.7036644608931223E-005   5.4588470458850446E-004   3.1209236063453518E-002
 chl2c          29   5.8970427346638911E-002   3.7743217595736761E-002  0.68676297499999994        8.6840084801261271E-005   2.8010137163040240E-006
 chl          29   3.2481584012516796E-005   5.5081140622543112E-004   5.8970427346638911E-002
 chl2c          30   2.5380056985171612E-002   2.5380056985171612E-002  0.38930277499999999        4.5805458964872000E-005   1.5601023629657410E-016
 chl          30   1.3854584909792365E-005   5.4588470458860497E-004   2.5380056985171612E-002
 chl2c          31   5.2049362632228841E-002   3.7576959810037038E-002  0.63559385000000002        8.6840084801261271E-005   2.4615653760568216E-006
 chl          31   2.8640434308845943E-005   5.5025523580786090E-004   5.2049362632228841E-002
 chl2c          32   6.0696891110891951E-002   2.0893126428578448E-002  0.24722667500000001        8.6840084801261271E-005   3.4930421904673104E-006
 chl          32   3.3459757992692063E-005   5.5125983193376061E-004   6.0696891110891951E-002
 chl2c          33   4.7210093446497729E-002   3.7458922634011876E-002  0.60343137499999999        8.6840084801261271E-005   2.2238494813222609E-006
 chl          33   2.5959220047944713E-005   5.4986588995770125E-004   4.7210093446497729E-002
 chl2c          34   5.4321750369443332E-002   2.5350269098008315E-002  0.38241020000000003        4.5805458964872000E-005   1.4501052511495377E-006
 chl          34   2.9780967247173729E-005   5.4823283573582891E-004   5.4321750369443332E-002
 chl2c          35   2.5740370148566064E-002   2.5740370148566064E-002  0.49574644999999995        4.5805458964872000E-005   1.1208006780790565E-016
 chl          35   1.4051274354549102E-005   5.4588470458851834E-004   2.5740370148566064E-002
 chl2c          36   3.7770393924465726E-002   3.7770393924465726E-002  0.69587337500000002        8.6840084801261271E-005   1.1606914856886892E-016
 chl          36   2.0629122345112616E-005   5.4617175522096229E-004   3.7770393924465726E-002
 chl2c          37   2.1353674699533250E-002   2.1353674699533250E-002  0.33194060000000003        8.6840084801261271E-005   1.0250277743016428E-016
 chl          37   1.1656644405233621E-005   5.4588470458849937E-004   2.1353674699533250E-002
 chl2c          38   2.1543295686358745E-002   2.1543295686358745E-002  0.38455722500000000        8.6840084801261271E-005   1.5930546816028212E-016
 chl          38   1.1760155601613053E-005   5.4588470458861158E-004   2.1543295686358745E-002
 chl2c          39   2.5670077108751441E-002   2.5670077108751441E-002  0.47091117500000002        4.5805458964872000E-005   1.2777649745888210E-016
 chl          39   1.4012902459276061E-005   5.4588470458854924E-004   2.5670077108751441E-002
 chl2c          40   3.7687445774703773E-002   3.7687445774703773E-002  0.66875547499999999        8.6840084801261271E-005   1.5318715291458765E-016
 chl          40   2.0583818408567555E-005   5.4617175522103547E-004   3.7687445774703773E-002
 chl2c          41   2.5582381488167241E-002   2.5582381488167241E-002  0.44304987499999998        4.5805458964872000E-005   9.2184885753371307E-017
 chl          41   1.3965030761337953E-005   5.4588470458847920E-004   2.5582381488167241E-002
 chl2c          42   3.7949995630725070E-002   3.7949995630725070E-002  0.76234377499999995        8.6840084801261271E-005   1.2899884192434982E-016
 chl          42   2.0727215722974572E-005   5.4617175518706536E-004   3.7949995630725070E-002
 chl2c          43   2.1185090152268007E-002   2.1185090152268007E-002  0.29539925000000000        8.6840084801261271E-005   4.5432295971447725E-008
 chl          43   1.1566518323316944E-005   5.4597446790089160E-004   2.1185090152268007E-002
 chl2c          44   3.7536352708156646E-002   3.7536352708156646E-002  0.62417262500000004        8.6840084801261271E-005   1.1005688558494399E-016
 chl          44   2.0501295641933266E-005   5.4617175518702796E-004   3.7536352708156646E-002
 chl2c          45   4.6544927192009838E-002   4.6544927192009838E-002  0.37662252499999999        3.7958539038806305E-005   1.2447566014446263E-007
 chl          45   2.5419588664745975E-005   5.4613016279698133E-004   4.6544927192009838E-002
 chl2c          46   5.7770344816771686E-002   3.7083195475449568E-002  0.51876034999999998        8.6840084801261271E-005   2.8227373388529273E-006
 chl          46   3.1819977717270950E-005   5.5080124271706071E-004   5.7770344816771686E-002
 chl2c          47   3.7519784612651236E-002   3.7519784612651236E-002  0.61962282499999999        8.6840084801261271E-005   1.4085391428450759E-016
 chl          47   2.0492246616133246E-005   5.4617175518708867E-004   3.7519784612651236E-002
 chl2c          48   3.7823212136301673E-002   3.7823212136301673E-002  0.71424949999999998        8.6840084801261271E-005   1.3541050962180753E-016
 chl          48   2.0657970159297074E-005   5.4617175518707794E-004   3.7823212136301673E-002
 chl2c          49   3.7152990741888416E-002   3.7152990741888416E-002  0.53276120000000005        8.6840084801261271E-005   1.2593280109871223E-016
 chl          49   2.0291914163945761E-005   5.4617175518705929E-004   3.7152990741888416E-002
 chl2c          50   5.1139343406657566E-002   2.1533072915600981E-002  0.38132569999999999        8.6840084801261271E-005   2.5643797748543569E-006
 chl          50   2.8129258443419431E-005   5.5005122415704359E-004   5.1139343406657566E-002
 chl2c          51   2.0700971146093840E-002   2.0700971146093840E-002  0.22275920000000002        8.6840084801261271E-005   1.6950338970754335E-016
 chl          51   1.1300343518783227E-005   5.4588470458863175E-004   2.0700971146093840E-002
 chl2c          52   3.7581825176985564E-002   3.7581825176985564E-002  0.63698869999999996        8.6840084801261271E-005   1.4999852795622433E-016
 chl          52   2.0526131421324073E-005   5.4617175522102919E-004   3.7581825176985564E-002
 chl2c          53   3.7925801262726190E-002   3.7925801262726190E-002  0.75269794999999995        8.6840084801261271E-005   1.3418051377743915E-016
 chl          53   2.0714001443825909E-005   5.4617175522099807E-004   3.7925801262726190E-002
 chl2c          54   3.7082433371327092E-002   3.7082433371327092E-002  0.51861124999999997        8.6840084801261271E-005   1.0987868380481306E-016
 chl          54   2.0253377721023724E-005   5.4617175518702763E-004   3.7082433371327092E-002
 chl2c          55   6.5770102026993682E-002   3.7357235588660491E-002  0.57808280000000001        8.6840084801261271E-005   3.2223572428848995E-006
 chl          55   3.6269023519732488E-005   5.5145153195667511E-004   6.5770102026993682E-002
 chl2c          56   3.7507394187257688E-002   3.7507394187257688E-002  0.61626080000000005        8.6840084801261271E-005   1.5039910475401702E-016
 chl          56   2.0485479317021591E-005   5.4617175522103005E-004   3.7507394187257688E-002
 chl2c          57   4.4633190680336395E-002   3.7727617852646313E-002  0.68163462500000005        8.6840084801261271E-005   2.0737643793249430E-006
 chl          57   2.4531860347634480E-005   5.4963268307058858E-004   4.4633190680336395E-002
 chl2c          58   4.9783604654083193E-002   3.7765358178394853E-002  0.69416802499999997        8.6840084801261271E-005   2.3286067704529371E-006
 chl          58   2.7383431512331894E-005   5.5004919194990307E-004   4.9783604654083193E-002
 chl2c          59   3.7173699120809672E-002   3.7173699120809672E-002  0.53705127500000005        8.6840084801261271E-005   1.2353385635503500E-008
 chl          59   2.0304134481347517E-005   5.4619623447647024E-004   3.7173699120809672E-002
 chl2c          60   3.7607757740906807E-002   3.7607757740906807E-002  0.64452155000000000        8.6840084801261271E-005   1.4747248156746511E-006
 chl          60   2.0638134109031566E-005   5.4877332095188975E-004   3.7607757740906807E-002
 chl2c          61   3.7805373434125003E-002   3.7805373434125003E-002  0.70794139999999994        8.6840084801261271E-005   1.3129540218577915E-016
 chl          61   2.0648227164018674E-005   5.4617175518706981E-004   3.7805373434125003E-002
 chl2c          62   3.7956103087269030E-002   3.7956103087269030E-002  0.76481592499999995        8.6840084801261271E-005   1.0696920869438252E-016
 chl          62   2.0730551443233266E-005   5.4617175518702188E-004   3.7956103087269030E-002
 chl2c          63   4.8616928898488045E-002   3.7855601011927406E-002  0.72597904999999996        8.6840084801261271E-005   2.2624601889528002E-006
 chl          63   2.6736663621033427E-005   5.4994554832658133E-004   4.8616928898488045E-002
 chl2c          64   2.5708982294816416E-002   2.5708982294816416E-002  0.48435739999999999        4.5805458964872000E-005   8.9663527906676155E-017
 chl          64   1.4034140205276173E-005   5.4588470458847421E-004   2.5708982294816416E-002
 chl2c          65   3.7953597170552002E-002   3.7953597170552002E-002  0.76379975000000000        8.6840084801261271E-005   1.1828743946507279E-016
 chl          65   2.0729184288296609E-005   5.4617179486692437E-004   3.7953597170552002E-002
 chl2c          66   3.1840477731474713E-002   3.1840477731474713E-002  0.35213202499999996        5.5277692361630931E-005   8.6725791050180423E-017
 chl          66   1.7381229780401773E-005   5.4588470458846814E-004   3.1840477731474713E-002
 chl2c          67   3.7937587124568600E-002   3.7937587124568600E-002  0.75736760000000003        8.6840084801261271E-005   1.2521028830243586E-016
 chl          67   2.0720438547387561E-005   5.4617175518705788E-004   3.7937587124568600E-002
 chl2c          68   4.6478331259211497E-002   3.7855407263856986E-002  0.72590779999999999        8.6840084801261271E-005   2.1561444537691595E-006
 chl          68   2.5552485776240009E-005   5.4977201383872370E-004   4.6478331259211497E-002
 chl2c          69   4.8361984671816051E-002   2.1732330561541505E-002  0.45524217500000003        8.6840084801261271E-005   2.3494721527652836E-006
 chl          69   2.6586803067790723E-005   5.4974590576066106E-004   4.8361984671816051E-002
 chl2c          70   3.2658010878182209E-002   3.2658010878182209E-002  0.48694062500000002        5.5277692361630931E-005   1.2616836236849515E-016
 chl          70   1.7827508620686015E-005   5.4588470458854599E-004   3.2658010878182209E-002
 chl2c          71   4.3481058864416305E-002   4.3481058864416305E-002  0.23986107500000001        3.7958539038806305E-005   9.5215163355607405E-017
 chl          71   2.3735644973396420E-005   5.4588470458848495E-004   4.3481058864416305E-002
 chl2c          72   3.7549776402781669E-002   3.7549776402781669E-002  0.62790522500000001        8.6840084801261271E-005   1.5087862766213322E-016
 chl          72   2.0508627286064513E-005   5.4617175522103092E-004   3.7549776402781669E-002
 chl2c          73   3.1852614277819484E-002   3.1852614277819484E-002  0.35362212500000001        5.5277692361630931E-005   1.0470747790688587E-016
 chl          73   1.7387854935419040E-005   5.4588470458850360E-004   3.1852614277819484E-002
 chl2c          74   3.8057805363219198E-002   3.7616827685877569E-002  0.64719590000000005        8.6840084801261271E-005   1.7557148431115442E-006
 chl          74   2.0897952102399969E-005   5.4911080402436196E-004   3.8057805363219198E-002
 chl2c          75   3.7826830779512356E-002   3.7826830779512356E-002  0.71554212500000003        8.6840084801261271E-005   1.1869268039318203E-016
 chl          75   2.0659946561292780E-005   5.4617175522096750E-004   3.7826830779512356E-002
 chl2c          76   5.9115122307753599E-002   3.7257729557919804E-002  0.55513977500000000        8.6840084801261271E-005   2.8726844202176179E-006
 chl          76   3.2566067308490771E-005   5.5089232732957359E-004   5.9115122307753599E-002
 chl2c          77   3.7138172437479272E-002   3.7138172437479272E-002  0.52973029999999999        8.6840084801261271E-005   8.4099187889651264E-007
 chl          77   2.0344174430413968E-005   5.4779686492819821E-004   3.7138172437479272E-002
 chl2c          78   7.3717562725968439E-002   4.7515248899399322E-002  0.45117492500000000        3.7958539038806305E-005   1.6723513122031112E-006
 chl          78   4.0438966282216264E-005   5.4856624102645293E-004   7.3717562725968439E-002
 prod   4.6700285994137207E-007   63.570256900661249        10.000000000000000     
 chl2c           1   3.7477407714772232E-002   3.7477407714772232E-002  0.60826437499999997        7.4627291358012521E-005   2.3769102606022483E-007
 chl           1   1.4722328216667585E-005   3.9283208509815310E-004   3.7477407714772232E-002
 chl2c           2   3.4794644146072001E-002   3.2640259920490348E-002  0.48302390000000001        4.7927321144537812E-005   8.9853289145720736E-007
 chl           2   1.3682882785350326E-005   3.9324680913269231E-004   3.4794644146072001E-002
 chl2c           3   3.7922212503796585E-002   3.7922212503796585E-002  0.75128689999999998        7.4627291358012521E-005   1.2654046738016944E-016
 chl           3   1.4884289525567971E-005   3.9249528291836428E-004   3.7922212503796585E-002
 chl2c           4   6.7735666220982010E-002   3.7976509103863923E-002  0.77318742499999993        7.4627291358012521E-005   2.7701453140845057E-006
 chl           4   2.6809052536676978E-005   3.9578930912430478E-004   6.7735666220982010E-002
 chl2c           5   7.3706830703221635E-002   2.5710500362372445E-002  0.48489679999999996        3.9430425761306670E-005   1.7136258885827549E-006
 chl           5   2.9052169582831341E-005   3.9415844238112802E-004   7.3706830703221635E-002
 chl2c           6   3.1261039902252048E-002   3.1261039902252048E-002  0.29222855000000003        4.7927321144537812E-005   1.0781675259804819E-016
 chl           6   1.2259758052565454E-005   3.9217371177989062E-004   3.1261039902252048E-002
 chl2c           7   5.0127802233680865E-002   4.3064391842467263E-002  0.22770740000000000        3.3110354455835464E-005   1.0641346261617218E-006
 chl           7   1.9718512325833230E-005   3.9336478854411780E-004   5.0127802233680865E-002
 chl2c           8   4.7969800906495587E-002   4.7969800906495587E-002  0.49578364999999996        3.3110354455835464E-005   2.8398016253843945E-007
 chl           8   1.8831701439043798E-005   3.9257410043771514E-004   4.7969800906495587E-002
 chl2c           9   7.3326442916164719E-002   2.4803669054600401E-002  0.28700202499999999        3.9430425761306670E-005   1.9417448139622432E-006
 chl           9   2.8913220175257698E-005   3.9430823350199379E-004   7.3326442916164719E-002
 chl2c          10   9.1397135075626079E-002   2.5387016219684602E-002  0.39094662499999999        3.9430425761306670E-005   2.3517055132568876E-006
 chl          10   3.6082714003439297E-005   3.9479042722272254E-004   9.1397135075626079E-002
 chl2c          11   2.1820572217820047E-002   2.1820572217820047E-002  0.49737575000000001        7.4627291358012521E-005   1.1744776346045832E-016
 chl          11   8.5574547998239486E-006   3.9217371177990439E-004   2.1820572217820047E-002
 chl2c          12   4.5290941298723353E-002   4.5290941298723353E-002  0.30768942500000002        3.3110354455835464E-005   5.1262688007040202E-017
 chl          12   1.7761916559121845E-005   3.9217371177981044E-004   4.5290941298723353E-002
 chl2c          13   3.7935816987997487E-002   3.7935816987997487E-002  0.75666275000000005        7.4627291358012521E-005   1.0502464836554809E-016
 chl          13   1.4889629220542626E-005   3.9249528289462057E-004   3.7935816987997487E-002
 chl2c          14   4.6856526101924839E-002   4.6856526101924839E-002  0.39804095000000000        3.3110354455835464E-005   8.4239889054615098E-017
 chl          14   1.8375897762501631E-005   3.9217371177985728E-004   4.6856526101924839E-002
 chl2c          15   5.7875865524337503E-002   2.0954299823745293E-002  0.25607262500000000        7.4627291358012521E-005   2.7901772036890778E-006
 chl          15   2.2877819230238797E-005   3.9529118092615647E-004   5.7875865524337503E-002
 chl2c          16   3.7823443882273475E-002   3.7823443882273475E-002  0.71433214999999994        7.4627291358012521E-005   1.3179592550665539E-016
 chl          16   1.4845523307520082E-005   3.9249528291837170E-004   3.7823443882273475E-002
 chl2c          17   3.7542254757581245E-002   3.7542254757581245E-002  0.62580860000000005        7.4627291358012521E-005   1.3172916035942746E-016
 chl          17   1.4735157902470432E-005   3.9249528291837159E-004   3.7542254757581245E-002
 chl2c          18   2.5694475239060960E-002   2.5694475239060960E-002  0.47925950000000000        3.9430425761306670E-005   1.2271203299685244E-016
 chl          18   1.0076697726739574E-005   3.9217371177991181E-004   2.5694475239060960E-002
 chl2c          19   4.4533102975567146E-002   3.7570220750293731E-002  0.63367130000000005        7.4627291358012521E-005   1.7873001695228433E-006
 chl          19   1.7574289515304052E-005   3.9463429092165649E-004   4.4533102975567146E-002
 chl2c          20   3.7020645196759419E-002   3.7020645196759419E-002  0.50678202500000002        7.4627291358012521E-005   1.1575961383828347E-016
 chl          20   1.4530428609444028E-005   3.9249528289463581E-004   3.7020645196759419E-002
 chl2c          21   3.7838475073783531E-002   3.7838475073783531E-002  0.71973185000000006        7.4627291358012521E-005   1.4831059287844323E-006
 chl          21   1.4919447538010315E-005   3.9429304455102860E-004   3.7838475073783531E-002
 chl2c          22   6.6470449919333985E-002   3.7613353106285476E-002  0.64616892500000001        7.4627291358012521E-005   2.7646503438281356E-006
 chl          22   2.6306578091695267E-005   3.9576350278386758E-004   6.6470449919333985E-002
 chl2c          23   3.2286562315070731E-002   3.2286562315070731E-002  0.41564179999999995        4.7927321144537812E-005   6.8779489700494202E-017
 chl          23   1.2661940983712241E-005   3.9217371177983532E-004   3.2286562315070731E-002
 chl2c          24   3.7348402796863071E-002   3.7348402796863071E-002  0.57597492500000003        7.4627291358012521E-005   9.3787282965078247E-017
 chl          24   1.4659071921416418E-005   3.9249528289460474E-004   3.7348402796863071E-002
 chl2c          25   4.5426679235459781E-002   4.5426679235459781E-002  0.31406487500000002        3.3110354455835464E-005   5.3990725997083529E-017
 chl          25   1.7815149409601280E-005   3.9217371177981434E-004   4.5426679235459781E-002
 chl2c          26   4.7955660680174553E-002   4.7955660680174553E-002  0.49427735000000000        3.3110354455835464E-005   4.9446296271136674E-017
 chl          26   1.8806949449797045E-005   3.9217371177980795E-004   4.7955660680174553E-002
 chl2c          27   4.5333133499525620E-002   4.5333133499525620E-002  0.30964730000000001        3.3110354455835464E-005   8.3567130348605024E-017
 chl          27   1.7778463231120710E-005   3.9217371177985630E-004   4.5333133499525620E-002
 chl2c          28   3.1209236063453518E-002   3.1209236063453518E-002  0.28776342500000002        4.7927321144537812E-005   8.3087737931971442E-017
 chl          28   1.2239441948818297E-005   3.9217371177985565E-004   3.1209236063453518E-002
 chl2c          29   5.7936444272819326E-002   3.7743217595736761E-002  0.68676297499999994        7.4627291358012521E-005   2.3609975567688175E-006
 chl          29   2.2902637810296594E-005   3.9530623768433928E-004   5.7936444272819326E-002
 chl2c          30   2.5380056985171612E-002   2.5380056985171612E-002  0.38930277499999999        3.9430425761306670E-005   1.3480893650474077E-016
 chl          30   9.9533911530608651E-006   3.9217371177992894E-004   2.5380056985171612E-002
 chl2c          31   4.8925443788109556E-002   3.7576959810037038E-002  0.63559385000000002        7.4627291358012521E-005   1.9778321969888066E-006
 chl          31   1.9318531642164036E-005   3.9485654388400366E-004   4.8925443788109556E-002
 chl2c          32   6.0370569891545156E-002   2.0893126428578448E-002  0.24722667500000001        7.4627291358012521E-005   2.9804441960898885E-006
 chl          32   2.3874807553545849E-005   3.9547096534680047E-004   6.0370569891545156E-002
 chl2c          33   4.8039524559285368E-002   3.7458922634011876E-002  0.60343137499999999        7.4627291358012521E-005   1.9475775884596050E-006
 chl          33   1.8966875521772232E-005   3.9481813560342992E-004   4.8039524559285368E-002
 chl2c          34   4.7501890910348371E-002   2.5350269098008315E-002  0.38241020000000003        3.9430425761306670E-005   1.0693402498607888E-006
 chl          34   1.8688528454122229E-005   3.9342704250223650E-004   4.7501890910348371E-002
 chl2c          35   2.5740370148566064E-002   2.5740370148566064E-002  0.49574644999999995        3.9430425761306670E-005   9.6691348161208558E-017
 chl          35   1.0094696503751045E-005   3.9217371177987500E-004   2.5740370148566064E-002
 chl2c          36   3.7770393924465726E-002   3.7770393924465726E-002  0.69587337500000002        7.4627291358012521E-005   9.9998656614538460E-017
 chl          36   1.4824701449319820E-005   3.9249528291832660E-004   3.7770393924465726E-002
 chl2c          37   2.1353674699533250E-002   2.1353674699533250E-002  0.33194060000000003        7.4627291358012521E-005   8.8401665155144572E-017
 chl          37   8.3743498670557112E-006   3.9217371177986324E-004   2.1353674699533250E-002
 chl2c          38   2.1543295686358745E-002   2.1543295686358745E-002  0.38455722500000000        7.4627291358012521E-005   1.3767509357557960E-016
 chl          38   8.4487142332919277E-006   3.9217371177993301E-004   2.1543295686358745E-002
 chl2c          39   2.5670077108751441E-002   2.5670077108751441E-002  0.47091117500000002        3.9430425761306670E-005   1.1029236251502802E-016
 chl          39   1.0067129421415149E-005   3.9217371177989425E-004   2.5670077108751441E-002
 chl2c          40   3.7687445774703773E-002   3.7687445774703773E-002  0.66875547499999999        7.4627291358012521E-005   1.3205371518900409E-016
 chl          40   1.4792144691813164E-005   3.9249528291837208E-004   3.7687445774703773E-002
 chl2c          41   2.5582381488167241E-002   2.5582381488167241E-002  0.44304987499999998        3.9430425761306670E-005   7.9478068205393766E-017
 chl          41   1.0032737504382683E-005   3.9217371177985056E-004   2.5582381488167241E-002
 chl2c          42   3.7949995630725070E-002   3.7949995630725070E-002  0.76234377499999995        7.4627291358012521E-005   1.1115959718050605E-016
 chl          42   1.4895194270931382E-005   3.9249528289462930E-004   3.7949995630725070E-002
 chl2c          43   2.1185090152268007E-002   2.1185090152268007E-002  0.29539925000000000        7.4627291358012521E-005   2.0906486561657340E-007
 chl          43   8.3145082025593506E-006   3.9246980507511437E-004   2.1185090152268007E-002
 chl2c          44   3.7536352708156646E-002   3.7536352708156646E-002  0.62417262500000004        7.4627291358012521E-005   9.4810606749403134E-017
 chl          44   1.4732841375019659E-005   3.9249528289460615E-004   3.7536352708156646E-002
 chl2c          45   4.6544927192009838E-002   4.6544927192009838E-002  0.37662252499999999        3.3110354455835464E-005   6.3958946789917075E-017
 chl          45   1.8253700971394112E-005   3.9217380008121797E-004   4.6544927192009838E-002
 chl2c          46   5.5881649184076183E-002   3.7083195475449568E-002  0.51876034999999998        7.4627291358012521E-005   2.3368803409240916E-006
 chl          46   2.2087363635162157E-005   3.9525253741895804E-004   5.5881649184076183E-002
 chl2c          47   3.7519784612651236E-002   3.7519784612651236E-002  0.61962282499999999        7.4627291358012521E-005   1.2139765032061535E-016
 chl          47   1.4726338475688649E-005   3.9249528289464377E-004   3.7519784612651236E-002
 chl2c          48   3.7823212136301673E-002   3.7823212136301673E-002  0.71424949999999998        7.4627291358012521E-005   1.1669614249471900E-016
 chl          48   1.4845432347421600E-005   3.9249528289463716E-004   3.7823212136301673E-002
 chl2c          49   3.7152990741888416E-002   3.7152990741888416E-002  0.53276120000000005        7.4627291358012521E-005   1.0851250795440856E-016
 chl          49   1.4582373611618899E-005   3.9249528289462556E-004   3.7152990741888416E-002
 chl2c          50   5.1260692477486158E-002   2.1533072915600981E-002  0.38132569999999999        7.4627291358012521E-005   2.2097785008900545E-006
 chl          50   2.0235289672440364E-005   3.9475256174753705E-004   5.1260692477486158E-002
 chl2c          51   2.0700971146093840E-002   2.0700971146093840E-002  0.22275920000000002        7.4627291358012521E-005   1.4655194739722028E-016
 chl          51   8.1183766918131748E-006   3.9217371177994559E-004   2.0700971146093840E-002
 chl2c          52   3.7581825176985564E-002   3.7581825176985564E-002  0.63698869999999996        7.4627291358012521E-005   1.2929819514890874E-016
 chl          52   1.4750689105429601E-005   3.9249528291836818E-004   3.7581825176985564E-002
 chl2c          53   3.7925801262726190E-002   3.7925801262726190E-002  0.75269794999999995        7.4627291358012521E-005   1.1563392312455148E-016
 chl          53   1.4885698096518783E-005   3.9249528291834872E-004   3.7925801262726190E-002
 chl2c          54   3.7082433371327092E-002   3.7082433371327092E-002  0.51861124999999997        7.4627291358012521E-005   9.4656850860894241E-017
 chl          54   1.4554680176499403E-005   3.9249528289460594E-004   3.7082433371327092E-002
 chl2c          55   6.5197478434203884E-002   3.7357235588660491E-002  0.57808280000000001        7.4627291358012521E-005   2.7420051136150196E-006
 chl          55   2.5800206510034384E-005   3.9572399316135340E-004   6.5197478434203884E-002
 chl2c          56   3.7507394187257688E-002   3.7507394187257688E-002  0.61626080000000005        7.4627291358012521E-005   1.2964434255445680E-016
 chl          56   1.4721475293058483E-005   3.9249528291836867E-004   3.7507394187257688E-002
 chl2c          57   4.0201673169477051E-002   3.7727617852646313E-002  0.68163462500000005        7.4627291358012521E-005   1.5940876169499713E-006
 chl          57   1.5855975697469535E-005   3.9441084033059893E-004   4.0201673169477051E-002
 chl2c          58   5.2220961425097086E-002   3.7765358178394853E-002  0.69416802499999997        7.4627291358012521E-005   2.1070650090095788E-006
 chl          58   2.0627927592718932E-005   3.9501240555110255E-004   5.2220961425097086E-002
 chl2c          59   3.7173699120809672E-002   3.7173699120809672E-002  0.53705127500000005        7.4627291358012521E-005   1.2294694440778419E-007
 chl          59   1.4596977471597765E-005   3.9266948990358727E-004   3.7173699120809672E-002
 chl2c          60   3.7607757740906807E-002   3.7607757740906807E-002  0.64452155000000000        7.4627291358012521E-005   1.3663406599631545E-006
 chl          60   1.4824643234669986E-005   3.9419109580534462E-004   3.7607757740906807E-002
 chl2c          61   3.7805373434125003E-002   3.7805373434125003E-002  0.70794139999999994        7.4627291358012521E-005   1.1314254786124296E-016
 chl          61   1.4838430740964102E-005   3.9249528289463212E-004   3.7805373434125003E-002
 chl2c          62   3.7956103087269030E-002   3.7956103087269030E-002  0.76481592499999995        7.4627291358012521E-005   9.2146632371892767E-017
 chl          62   1.4897591418814350E-005   3.9249528289460241E-004   3.7956103087269030E-002
 chl2c          63   4.8815736377256377E-002   3.7855601011927406E-002  0.72597904999999996        7.4627291358012521E-005   1.9528019267951947E-006
 chl          63   1.9274158363054955E-005   3.9483494039915644E-004   4.8815736377256377E-002
 chl2c          64   2.5708982294816416E-002   2.5708982294816416E-002  0.48435739999999999        3.9430425761306670E-005   7.7298497088122144E-017
 chl          64   1.0082387012640535E-005   3.9217371177984747E-004   2.5708982294816416E-002
 chl2c          65   3.7953597170552002E-002   3.7953597170552002E-002  0.76379975000000000        7.4627291358012521E-005   7.7775796981015582E-008
 chl          65   1.4900790608953023E-005   3.9260548985629401E-004   3.7953597170552002E-002
 chl2c          66   3.1840477731474713E-002   3.1840477731474713E-002  0.35213202499999996        4.7927321144537812E-005   5.3701513259513931E-017
 chl          66   1.2486998336794947E-005   3.9217371177981391E-004   3.1840477731474713E-002
 chl2c          67   3.7937587124568600E-002   3.7937587124568600E-002  0.75736760000000003        7.4627291358012521E-005   1.0788876480425678E-016
 chl          67   1.4890323990797022E-005   3.9249528289462464E-004   3.7937587124568600E-002
 chl2c          68   4.9652848828363565E-002   3.7855407263856986E-002  0.72590779999999999        7.4627291358012521E-005   1.9887622128010484E-006
 chl          68   1.9606767580016713E-005   3.9487699180749914E-004   4.9652848828363565E-002
 chl2c          69   4.7421689764884839E-002   2.1732330561541505E-002  0.45524217500000003        7.4627291358012521E-005   1.9752322183819733E-006
 chl          69   1.8708213353515903E-005   3.9450752274477357E-004   4.7421689764884839E-002
 chl2c          70   3.2658010878182209E-002   3.2658010878182209E-002  0.48694062500000002        4.7927321144537812E-005   1.0089436160236233E-016
 chl          70   1.2807613345444444E-005   3.9217371177988086E-004   3.2658010878182209E-002
 chl2c          71   4.3481058864416305E-002   4.3481058864416305E-002  0.23986107500000001        3.3110354455835464E-005   5.9371484554195765E-017
 chl          71   1.7052128246975070E-005   3.9217371177982193E-004   4.3481058864416305E-002
 chl2c          72   3.7549776402781669E-002   3.7549776402781669E-002  0.62790522500000001        7.4627291358012521E-005   1.3005871652499590E-016
 chl          72   1.4738110112731298E-005   3.9249528291836926E-004   3.7549776402781669E-002
 chl2c          73   3.1852614277819484E-002   3.1852614277819484E-002  0.35362212500000001        4.7927321144537812E-005   6.5806182181187449E-017
 chl          73   1.2491757971223710E-005   3.9217371177983109E-004   3.1852614277819484E-002
 chl2c          74   4.0987592041610905E-002   3.7616827685877569E-002  0.64719590000000005        7.4627291358012521E-005   1.6328036462991949E-006
 chl          74   1.6167730745717618E-005   3.9445427116830914E-004   4.0987592041610905E-002
 chl2c          75   3.7826830779512356E-002   3.7826830779512356E-002  0.71554212500000003        7.4627291358012521E-005   1.0226287442788437E-016
 chl          75   1.4846852648708487E-005   3.9249528291832980E-004   3.7826830779512356E-002
 chl2c          76   5.8563615916409462E-002   3.7257729557919804E-002  0.55513977500000000        7.4627291358012521E-005   2.4429357611693218E-006
 chl          76   2.3154894833204546E-005   3.9538021126042818E-004   5.8563615916409462E-002
 chl2c          77   3.7138172437479272E-002   3.7138172437479272E-002  0.52973029999999999        7.4627291358012521E-005   8.4315748993433990E-007
 chl          77   1.4619355072405916E-005   3.9364767065522825E-004   3.7138172437479272E-002
 chl2c          78   5.9160833558805068E-002   4.7515248899399322E-002  0.45117492500000000        3.3110354455835464E-005   1.1272270320722657E-006
 chl          78   2.3279211830464938E-005   3.9349026087209734E-004   5.9160833558805068E-002
 prod   2.6997546991512229E-007   54.334120067670462        10.000000000000000     
 chl2c           1   3.7477407714772232E-002   3.7477407714772232E-002  0.60826437499999997        6.4251016798761199E-005   3.0018853109714140E-007
 chl           1   8.9604963115808620E-006   2.3909061106296741E-004   3.7477407714772232E-002
 chl2c           2   3.2640259920490348E-002   3.2640259920490348E-002  0.48302390000000001        4.1590159258055799E-005   2.4049448334983219E-007
 chl           2   7.7917391169433714E-006   2.3871559650332337E-004   3.2640259920490348E-002
 chl2c           3   3.7922212503796585E-002   3.7922212503796585E-002  0.75128689999999998        6.4251016798761199E-005   1.0680349629812852E-016
 chl           3   9.0570399804109309E-006   2.3883205600158970E-004   3.7922212503796585E-002
 chl2c           4   6.6397090518666879E-002   3.7976509103863923E-002  0.77318742499999993        6.4251016798761199E-005   2.3334217350338497E-006
 chl           4   1.5969858385087557E-005   2.4052045444066246E-004   6.6397090518666879E-002
 chl2c           5   6.7777425987879988E-002   2.5710500362372445E-002  0.48489679999999996        3.4050465767397003E-005   1.3414271395076047E-006
 chl           5   1.6230011608896145E-005   2.3946043055394885E-004   6.7777425987879988E-002
 chl2c           6   3.1261039902252048E-002   3.1261039902252048E-002  0.29222855000000003        4.1590159258055799E-005   7.3934707661915122E-017
 chl           6   7.4560889151373534E-006   2.3851058501096810E-004   3.1261039902252048E-002
 chl2c           7   4.3064391842467263E-002   4.3064391842467263E-002  0.22770740000000000        2.8899500750241178E-005   3.0395695236516928E-007
 chl           7   1.0282336189947233E-005   2.3876654818581395E-004   4.3064391842467263E-002
 chl2c           8   4.7969800906495587E-002   4.7969800906495587E-002  0.49578364999999996        2.8899500750241178E-005   1.0719714226780351E-007
 chl           8   1.1445700981525914E-005   2.3860221983902486E-004   4.7969800906495587E-002
 chl2c           9   7.4375104142673593E-002   2.4803669054600401E-002  0.28700202499999999        3.4050465767397003E-005   1.7091782556852925E-006
 chl           9   1.7824050019866247E-005   2.3965075713607624E-004   7.4375104142673593E-002
 chl2c          10   8.6835596900554188E-002   2.5387016219684602E-002  0.39094662499999999        3.4050465767397003E-005   1.9005362344273495E-006
 chl          10   2.0823578001443986E-005   2.3980462787964193E-004   8.6835596900554188E-002
 chl2c          11   2.1820572217820047E-002   2.1820572217820047E-002  0.49737575000000001        6.4251016798761199E-005   9.8318802590029374E-017
 chl          11   5.2044374449467977E-006   2.3851058501098921E-004   2.1820572217820047E-002
 chl2c          12   4.5290941298723353E-002   4.5290941298723353E-002  0.30768942500000002        2.8899500750241178E-005   1.4863898694076261E-017
 chl          12   1.0802368904853618E-005   2.3851058501091722E-004   4.5290941298723353E-002
 chl2c          13   3.7935816987997487E-002   3.7935816987997487E-002  0.75666275000000005        6.4251016798761199E-005   8.8842919911385094E-017
 chl          13   9.0602891668109538E-006   2.3883205598755232E-004   3.7935816987997487E-002
 chl2c          14   4.6856526101924839E-002   4.6856526101924839E-002  0.39804095000000000        2.8899500750241178E-005   5.7432701289798326E-017
 chl          14   1.1175777452151127E-005   2.3851058501095392E-004   4.6856526101924839E-002
 chl2c          15   5.5460723691935818E-002   2.0954299823745293E-002  0.25607262500000000        6.4251016798761199E-005   2.2742698869965290E-006
 chl          15   1.3314095098271128E-005   2.4006349380195779E-004   5.5460723691935818E-002
 chl2c          16   3.7823443882273475E-002   3.7823443882273475E-002  0.71433214999999994        6.4251016798761199E-005   1.1117828365793998E-016
 chl          16   9.0334508674642670E-006   2.3883205600159346E-004   3.7823443882273475E-002
 chl2c          17   3.7542254757581245E-002   3.7542254757581245E-002  0.62580860000000005        6.4251016798761199E-005   1.1112273663459653E-016
 chl          17   8.9662938906887306E-006   2.3883205600159341E-004   3.7542254757581245E-002
 chl2c          18   2.5694475239060960E-002   2.5694475239060960E-002  0.47925950000000000        3.4050465767397003E-005   1.0262797850440793E-016
 chl          18   6.1284043208189022E-006   2.3851058501099295E-004   2.5694475239060960E-002
 chl2c          19   4.4603625659570788E-002   3.7570220750293731E-002  0.63367130000000005        6.4251016798761199E-005   1.5414130027133016E-006
 chl          19   1.0702809266026852E-005   2.3995379540923720E-004   4.4603625659570788E-002
 chl2c          20   3.7020645196759419E-002   3.7020645196759419E-002  0.50678202500000002        6.4251016798761199E-005   9.7814162683869138E-017
 chl          20   8.8417168063280429E-006   2.3883205598756007E-004   3.7020645196759419E-002
 chl2c          21   3.9474187177050257E-002   3.7838475073783531E-002  0.71973185000000006        6.4251016798761199E-005   1.3417156470315832E-006
 chl          21   9.4664574495795984E-006   2.3981386639123159E-004   3.9474187177050257E-002
 chl2c          22   6.4598834020662230E-002   3.7613353106285476E-002  0.64616892500000001        6.4251016798761199E-005   2.3057843835307667E-006
 chl          22   1.5535469652578017E-005   2.4049148700747331E-004   6.4598834020662230E-002
 chl2c          23   3.2286562315070731E-002   3.2286562315070731E-002  0.41564179999999995        4.1590159258055799E-005   2.0451858693664897E-017
 chl          23   7.7006868657591083E-006   2.3851058501092199E-004   3.2286562315070731E-002
 chl2c          24   3.7348402796863071E-002   3.7348402796863071E-002  0.57597492500000003        6.4251016798761199E-005   7.9430185059726490E-017
 chl          24   8.9199958278257541E-006   2.3883205598754421E-004   3.7348402796863071E-002
 chl2c          25   4.5426679235459781E-002   4.5426679235459781E-002  0.31406487500000002        2.8899500750241178E-005   1.5715806423282912E-017
 chl          25   1.0834743839552832E-005   2.3851058501091796E-004   4.5426679235459781E-002
 chl2c          26   4.7955660680174553E-002   4.7955660680174553E-002  0.49427735000000000        2.8899500750241178E-005   1.4300330510676273E-017
 chl          26   1.1437932683413450E-005   2.3851058501091674E-004   4.7955660680174553E-002
 chl2c          27   4.5333133499525620E-002   4.5333133499525620E-002  0.30964730000000001        2.8899500750241178E-005   5.6964647290494192E-017
 chl          27   1.0812432191351510E-005   2.3851058501095352E-004   4.5333133499525620E-002
 chl2c          28   3.1209236063453518E-002   3.1209236063453518E-002  0.28776342500000002        4.1590159258055799E-005   5.6631217572970051E-017
 chl          28   7.4437331512392377E-006   2.3851058501095325E-004   3.1209236063453518E-002
 chl2c          29   5.5772481588375208E-002   3.7743217595736761E-002  0.68676297499999994        6.4251016798761199E-005   1.9500872158067342E-006
 chl          29   1.3399092279868246E-005   2.4024558166084995E-004   5.5772481588375208E-002
 chl2c          30   2.5380056985171612E-002   2.5380056985171612E-002  0.38930277499999999        3.4050465767397003E-005   1.1249942979366964E-016
 chl          30   6.0534122391458357E-006   2.3851058501100147E-004   2.5380056985171612E-002
 chl2c          31   4.4851176513968909E-002   3.7576959810037038E-002  0.63559385000000002        6.4251016798761199E-005   1.5502623193615567E-006
 chl          31   1.0762497214100086E-005   2.3996019838516618E-004   4.4851176513968909E-002
 chl2c          32   5.8401788251028743E-002   2.0893126428578448E-002  0.24722667500000001        6.4251016798761199E-005   2.4564744406212925E-006
 chl          32   1.4026383583902530E-005   2.4017044689818136E-004   5.8401788251028743E-002
 chl2c          33   4.7735323516003549E-002   3.7458922634011876E-002  0.60343137499999999        6.4251016798761199E-005   1.6652538864143408E-006
 chl          33   1.1458389575996934E-005   2.4004005277465947E-004   4.7735323516003549E-002
 chl2c          34   3.9694325560257454E-002   2.5350269098008315E-002  0.38241020000000003        3.4050465767397003E-005   7.5407880640676555E-007
 chl          34   9.4890282749992803E-006   2.3905251294910110E-004   3.9694325560257454E-002
 chl2c          35   2.5740370148566064E-002   2.5740370148566064E-002  0.49574644999999995        3.4050465767397003E-005   8.1248293528786676E-017
 chl          35   6.1393507425335167E-006   2.3851058501097450E-004   2.5740370148566064E-002
 chl2c          36   3.7770393924465726E-002   3.7770393924465726E-002  0.69587337500000002        6.4251016798761199E-005   8.4635746757126685E-017
 chl          36   9.0207808369693797E-006   2.3883205600157059E-004   3.7770393924465726E-002
 chl2c          37   2.1353674699533250E-002   2.1353674699533250E-002  0.33194060000000003        6.4251016798761199E-005   7.4394719953982194E-017
 chl          37   5.0930774447195946E-006   2.3851058501096859E-004   2.1353674699533250E-002
 chl2c          38   2.1543295686358745E-002   2.1543295686358745E-002  0.38455722500000000        6.4251016798761199E-005   1.1483207312172857E-016
 chl          38   5.1383040572184509E-006   2.3851058501100344E-004   2.1543295686358745E-002
 chl2c          39   2.5670077108751441E-002   2.5670077108751441E-002  0.47091117500000002        3.4050465767397003E-005   9.2448503794816139E-017
 chl          39   6.1225851084853798E-006   2.3851058501098417E-004   2.5670077108751441E-002
 chl2c          40   3.7687445774703773E-002   3.7687445774703773E-002  0.66875547499999999        6.4251016798761199E-005   1.1139275130770209E-016
 chl          40   9.0009701598210754E-006   2.3883205600159363E-004   3.7687445774703773E-002
 chl2c          41   2.5582381488167241E-002   2.5582381488167241E-002  0.44304987499999998        3.4050465767397003E-005   6.6993892686310759E-017
 chl          41   6.1016687747163798E-006   2.3851058501096224E-004   2.5582381488167241E-002
 chl2c          42   3.7949995630725070E-002   3.7949995630725070E-002  0.76234377499999995        6.4251016798761199E-005   9.3972383564180243E-017
 chl          42   9.0636754812048647E-006   2.3883205598755676E-004   3.7949995630725070E-002
 chl2c          43   2.1185090152268007E-002   2.1185090152268007E-002  0.29539925000000000        6.4251016798761199E-005   3.2675965557348648E-007
 chl          43   5.0587451008960440E-006   2.3878799025806700E-004   2.1185090152268007E-002
 chl2c          44   3.7536352708156646E-002   3.7536352708156646E-002  0.62417262500000004        6.4251016798761199E-005   8.0288267671558596E-017
 chl          44   8.9648842915627020E-006   2.3883205598754494E-004   3.7536352708156646E-002
 chl2c          45   4.6544927192009838E-002   4.6544927192009838E-002  0.37662252499999999        2.8899500750241178E-005   1.8885836246515769E-017
 chl          45   1.1101457815335505E-005   2.3851058504268630E-004   4.6544927192009838E-002
 chl2c          46   5.2858768414484454E-002   3.7083195475449568E-002  0.51876034999999998        6.4251016798761199E-005   1.8907740761329750E-006
 chl          46   1.2696243554750097E-005   2.4019181557909794E-004   5.2858768414484454E-002
 chl2c          47   3.7519784612651236E-002   3.7519784612651236E-002  0.61962282499999999        6.4251016798761199E-005   1.0251782033014179E-016
 chl          47   8.9609272992500671E-006   2.3883205598756413E-004   3.7519784612651236E-002
 chl2c          48   3.7823212136301673E-002   3.7823212136301673E-002  0.71424949999999998        6.4251016798761199E-005   9.8595866881637150E-017
 chl          48   9.0333955185665878E-006   2.3883205598756074E-004   3.7823212136301673E-002
 chl2c          49   3.7152990741888416E-002   3.7152990741888416E-002  0.53276120000000005        6.4251016798761199E-005   9.1759946244844852E-017
 chl          49   8.8733251649718014E-006   2.3883205598755484E-004   3.7152990741888416E-002
 chl2c          50   4.9917462149820728E-002   2.1533072915600981E-002  0.38132569999999999        6.4251016798761199E-005   1.8451653191866452E-006
 chl          50   1.1971304004546821E-005   2.3982196788403464E-004   4.9917462149820728E-002
 chl2c          51   2.0700971146093840E-002   2.0700971146093840E-002  0.22275920000000002        6.4251016798761199E-005   1.2204155125578481E-016
 chl          51   4.9374007383508727E-006   2.3851058501100965E-004   2.0700971146093840E-002
 chl2c          52   3.7581825176985564E-002   3.7581825176985564E-002  0.63698869999999996        6.4251016798761199E-005   1.0909970341010855E-016
 chl          52   8.9757445753118436E-006   2.3883205600159168E-004   3.7581825176985564E-002
 chl2c          53   3.7925801262726190E-002   3.7925801262726190E-002  0.75269794999999995        6.4251016798761199E-005   9.7709239169564994E-017
 chl          53   9.0578970910842856E-006   2.3883205600158186E-004   3.7925801262726190E-002
 chl2c          54   3.7082433371327092E-002   3.7082433371327092E-002  0.51861124999999997        6.4251016798761199E-005   8.0159351259737993E-017
 chl          54   8.8564738030951936E-006   2.3883205598754483E-004   3.7082433371327092E-002
 chl2c          55   6.3377752331169546E-002   3.7357235588660491E-002  0.57808280000000001        6.4251016798761199E-005   2.2867488151392037E-006
 chl          55   1.5240545387723623E-005   2.4047153499680415E-004   6.3377752331169546E-002
 chl2c          56   3.7507394187257688E-002   3.7507394187257688E-002  0.61626080000000005        6.4251016798761199E-005   1.0938782772884381E-016
 chl          56   8.9579680690049117E-006   2.3883205600159192E-004   3.7507394187257688E-002
 chl2c          57   3.7727617852646313E-002   3.7727617852646313E-002  0.68163462500000005        6.4251016798761199E-005   1.1906565676942142E-006
 chl          57   9.0443880977344306E-006   2.3972857584222040E-004   3.7727617852646313E-002
 chl2c          58   5.3022436157878924E-002   3.7765358178394853E-002  0.69416802499999997        6.4251016798761199E-005   1.8442408341752665E-006
 chl          58   1.2734462269543347E-005   2.4017120283997091E-004   5.3022436157878924E-002
 chl2c          59   3.7173699120809672E-002   3.7173699120809672E-002  0.53705127500000005        6.4251016798761199E-005   2.0282166870333288E-007
 chl          59   8.8847662503886706E-006   2.3900678330435556E-004   3.7173699120809672E-002
 chl2c          60   3.7607757740906807E-002   3.7607757740906807E-002  0.64452155000000000        6.4251016798761199E-005   1.2238121503326172E-006
 chl          60   9.0162684549900863E-006   2.3974490893890457E-004   3.7607757740906807E-002
 chl2c          61   3.7805373434125003E-002   3.7805373434125003E-002  0.70794139999999994        6.4251016798761199E-005   9.5628930815578498E-017
 chl          61   9.0291350646494886E-006   2.3883205598755820E-004   3.7805373434125003E-002
 chl2c          62   3.7956103087269030E-002   3.7956103087269030E-002  0.76481592499999995        6.4251016798761199E-005   7.8054074274998050E-017
 chl          62   9.0651341376075906E-006   2.3883205598754302E-004   3.7956103087269030E-002
 chl2c          63   4.8012182063867155E-002   3.7855601011927406E-002  0.72597904999999996        6.4251016798761199E-005   1.6516463853561058E-006
 chl          63   1.1524646225868488E-005   2.4003587694760632E-004   4.8012182063867155E-002
 chl2c          64   2.5708982294816416E-002   2.5708982294816416E-002  0.48435739999999999        3.4050465767397003E-005   6.5182590543930942E-017
 chl          64   6.1318644071730936E-006   2.3851058501096067E-004   2.5708982294816416E-002
 chl2c          65   3.7953597170552002E-002   3.7953597170552002E-002  0.76379975000000000        6.4251016798761199E-005   1.4087982801935974E-007
 chl          65   9.0691419243335922E-006   2.3895342208485820E-004   3.7953597170552002E-002
 chl2c          66   3.1840477731474713E-002   3.1840477731474713E-002  0.35213202499999996        4.1590159258055799E-005   1.5625177538458063E-017
 chl          66   7.5942909707611374E-006   2.3851058501091787E-004   3.1840477731474713E-002
 chl2c          67   3.7937587124568600E-002   3.7937587124568600E-002  0.75736760000000003        6.4251016798761199E-005   9.1238443147639570E-017
 chl          67   9.0607119321676897E-006   2.3883205598755437E-004   3.7937587124568600E-002
 chl2c          68   5.1124406893202502E-002   3.7855407263856986E-002  0.72590779999999999        6.4251016798761199E-005   1.7668324589876599E-006
 chl          68   1.2275878930114288E-005   2.4011777693105107E-004   5.1124406893202502E-002
 chl2c          69   4.5221481140453920E-002   2.1732330561541505E-002  0.45524217500000003        6.4251016798761199E-005   1.6129893701881087E-006
 chl          69   1.0838309100407608E-005   2.3967169643879596E-004   4.5221481140453920E-002
 chl2c          70   3.2658010878182209E-002   3.2658010878182209E-002  0.48694062500000002        4.1590159258055799E-005   6.9069467020635387E-017
 chl          70   7.7892812798496618E-006   2.3851058501096393E-004   3.2658010878182209E-002
 chl2c          71   4.3481058864416305E-002   4.3481058864416305E-002  0.23986107500000001        2.8899500750241178E-005   1.7415680836150614E-017
 chl          71   1.0370692786646156E-005   2.3851058501091939E-004   4.3481058864416305E-002
 chl2c          72   3.7549776402781669E-002   3.7549776402781669E-002  0.62790522500000001        6.4251016798761199E-005   1.0973271471076517E-016
 chl          72   8.9680903006764173E-006   2.3883205600159222E-004   3.7549776402781669E-002
 chl2c          73   3.1852614277819484E-002   3.1852614277819484E-002  0.35362212500000001        4.1590159258055799E-005   1.9483349243288833E-017
 chl          73   7.5971856655299452E-006   2.3851058501092115E-004   3.1852614277819484E-002
 chl2c          74   4.2559072416770108E-002   3.7616827685877569E-002  0.64719590000000005        6.4251016798761199E-005   1.4634683165023878E-006
 chl          74   1.0209871389696726E-005   2.3989882321010354E-004   4.2559072416770108E-002
 chl2c          75   3.7826830779512356E-002   3.7826830779512356E-002  0.71554212500000003        6.4251016798761199E-005   8.6531633722998203E-017
 chl          75   9.0342597670944911E-006   2.3883205600157221E-004   3.7826830779512356E-002
 chl2c          76   5.6964441182647145E-002   3.7257729557919804E-002  0.55513977500000000        6.4251016798761199E-005   2.0392664542088582E-006
 chl          76   1.3688451412095829E-005   2.4029817773874149E-004   5.6964441182647145E-002
 chl2c          77   3.7138172437479272E-002   3.7138172437479272E-002  0.52973029999999999        6.4251016798761199E-005   8.0439237138922703E-007
 chl          77   8.8942654294758466E-006   2.3949119856258436E-004   3.7138172437479272E-002
 chl2c          78   4.7515248899399322E-002   4.7515248899399322E-002  0.45117492500000000        2.8899500750241178E-005   6.3541049284246123E-007
 chl          78   1.1355997539106067E-005   2.3899690735387536E-004   4.7515248899399322E-002
 prod   7.2967762011992735E-008   46.570596845673776        10.000000000000000     
 chl2c           1   3.7477407714772232E-002   3.7477407714772232E-002  0.60826437499999997        5.5402330341462175E-005   3.6590880455853546E-007
 chl           1   6.3066741027947943E-006   1.6827935781451962E-004   3.7477407714772232E-002
 chl2c           2   3.2640259920490348E-002   3.2640259920490348E-002  0.48302390000000001        3.6115876427951821E-005   6.2080702494060676E-008
 chl           2   5.4818400292148584E-006   1.6794719290129064E-004   3.2640259920490348E-002
 chl2c           3   3.7922212503796585E-002   3.7922212503796585E-002  0.75128689999999998        5.5402330341462175E-005   9.6001591923352456E-017
 chl           3   6.3731415997235930E-006   1.6805827452935520E-004   3.7922212503796585E-002
 chl2c           4   6.8706299143186447E-002   3.7976509103863923E-002  0.77318742499999993        5.5402330341462175E-005   2.0888632663988081E-006
 chl           4   1.1619664548438339E-005   1.6912080396329501E-004   6.8706299143186447E-002
 chl2c           5   6.4911781536900401E-002   2.5710500362372445E-002  0.48489679999999996        2.9475826062010910E-005   1.1045236960537042E-006
 chl           5   1.0935198337154378E-005   1.6846245902121861E-004   6.4911781536900401E-002
 chl2c           6   3.1261039902252048E-002   3.1261039902252048E-002  0.29222855000000003        3.6115876427951821E-005   5.6243286760462946E-017
 chl           6   5.2490592087207316E-006   1.6791057575607358E-004   3.1261039902252048E-002
 chl2c           7   4.3064391842467263E-002   4.3064391842467263E-002  0.22770740000000000        2.5236355254676324E-005   8.5240133733492754E-008
 chl           7   7.2331312035895663E-006   1.6796083479011839E-004   4.3064391842467263E-002
 chl2c           8   4.7969800906495587E-002   4.7969800906495587E-002  0.49578364999999996        2.5236355254676324E-005   3.7579052608844912E-008
 chl           8   8.0556990117202462E-006   1.6793271724063847E-004   4.7969800906495587E-002
 chl2c           9   7.8485652499961645E-002   2.4803669054600401E-002  0.28700202499999999        2.9475826062010910E-005   1.5921026402646324E-006
 chl           9   1.3236742114035507E-005   1.6865174324749322E-004   7.8485652499961645E-002
 chl2c          10   8.6320584828904909E-002   2.5387016219684602E-002  0.39094662499999999        2.9475826062010910E-005   1.6326789994098680E-006
 chl          10   1.4561725461638687E-005   1.6869354500437323E-004   8.6320584828904909E-002
 chl2c          11   2.1820572217820047E-002   2.1820572217820047E-002  0.49737575000000001        5.5402330341462175E-005   8.8281627681994862E-017
 chl          11   3.6639048444215721E-006   1.6791057575609304E-004   2.1820572217820047E-002
 chl2c          12   4.5290941298723353E-002   4.5290941298723353E-002  0.30768942500000002        2.5236355254676324E-005   4.2229973922612805E-018
 chl          12   7.6048280300017388E-006   1.6791057575604200E-004   4.5290941298723353E-002
 chl2c          13   3.7935816987997487E-002   3.7935816987997487E-002  0.75666275000000005        5.5402330341462175E-005   7.9874736316027857E-017
 chl          13   6.3754279454894673E-006   1.6805827451947560E-004   3.7935816987997487E-002
 chl2c          14   4.6856526101924839E-002   4.6856526101924839E-002  0.39804095000000000        2.5236355254676324E-005   4.3706679762093768E-017
 chl          14   7.8677062757033347E-006   1.6791057575606599E-004   4.6856526101924839E-002
 chl2c          15   5.5913394465461022E-002   2.0954299823745293E-002  0.25607262500000000        5.5402330341462175E-005   1.9815335332516797E-006
 chl          15   9.4416463673329514E-006   1.6886197766378272E-004   5.5913394465461022E-002
 chl2c          16   3.7823443882273475E-002   3.7823443882273475E-002  0.71433214999999994        5.5402330341462175E-005   9.9928199661366377E-017
 chl          16   6.3565427156128657E-006   1.6805827452935756E-004   3.7823443882273475E-002
 chl2c          17   3.7542254757581245E-002   3.7542254757581245E-002  0.62580860000000005        5.5402330341462175E-005   9.9878347208830759E-017
 chl          17   6.3092865565006683E-006   1.6805827452935754E-004   3.7542254757581245E-002
 chl2c          18   2.5694475239060960E-002   2.5694475239060960E-002  0.47925950000000000        2.9475826062010910E-005   9.2136921773031745E-017
 chl          18   4.3143741311414621E-006   1.6791057575609537E-004   2.5694475239060960E-002
 chl2c          19   4.6925994601806215E-002   3.7570220750293731E-002  0.63367130000000005        5.5402330341462175E-005   1.4038669092434309E-006
 chl          19   7.9199968850512125E-006   1.6877632434340276E-004   4.6925994601806215E-002
 chl2c          20   3.7020645196759419E-002   3.7020645196759419E-002  0.50678202500000002        5.5402330341462175E-005   8.7931252690837744E-017
 chl          20   6.2216257533652808E-006   1.6805827451948048E-004   3.7020645196759419E-002
 chl2c          21   4.3304694274107658E-002   3.7838475073783531E-002  0.71973185000000006        5.5402330341462175E-005   1.2763879663990865E-006
 chl          21   7.3061227641551800E-006   1.6871433655458432E-004   4.3304694274107658E-002
 chl2c          22   6.6332555623356701E-002   3.7613353106285476E-002  0.64616892500000001        5.5402330341462175E-005   2.0476955326011674E-006
 chl          22   1.1216460953891552E-005   1.6909435869740658E-004   6.6332555623356701E-002
 chl2c          23   3.2286562315070731E-002   3.2286562315070731E-002  0.41564179999999995        3.6115876427951821E-005   5.8542678695994642E-018
 chl          23   5.4212552675068854E-006   1.6791057575604295E-004   3.2286562315070731E-002
 chl2c          24   3.7348402796863071E-002   3.7348402796863071E-002  0.57597492500000003        5.5402330341462175E-005   7.1419360497588920E-017
 chl          24   6.2767081300989724E-006   1.6805827451947045E-004   3.7348402796863071E-002
 chl2c          25   4.5426679235459781E-002   4.5426679235459781E-002  0.31406487500000002        2.5236355254676324E-005   4.4701172729462206E-018
 chl          25   7.6276198651110960E-006   1.6791057575604214E-004   4.5426679235459781E-002
 chl2c          26   4.7955660680174553E-002   4.7955660680174553E-002  0.49427735000000000        2.5236355254676324E-005   4.0598272013219850E-018
 chl          26   8.0522625955694890E-006   1.6791057575604189E-004   4.7955660680174553E-002
 chl2c          27   4.5333133499525620E-002   4.5333133499525620E-002  0.30964730000000001        2.5236355254676324E-005   4.3350945599889140E-017
 chl          27   7.6119125467319393E-006   1.6791057575606577E-004   4.5333133499525620E-002
 chl2c          28   3.1209236063453518E-002   3.1209236063453518E-002  0.28776342500000002        3.6115876427951821E-005   4.3097524648449526E-017
 chl          28   5.2403607963214468E-006   1.6791057575606561E-004   3.1209236063453518E-002
 chl2c          29   5.6553343922057901E-002   3.7743217595736761E-002  0.68676297499999994        5.5402330341462175E-005   1.7071754762263411E-006
 chl          29   9.5534904747631954E-006   1.6892883448112040E-004   5.6553343922057901E-002
 chl2c          30   2.5380056985171612E-002   2.5380056985171612E-002  0.38930277499999999        2.9475826062010910E-005   1.0096175485380610E-016
 chl          30   4.2615799811028130E-006   1.6791057575610079E-004   2.5380056985171612E-002
 chl2c          31   4.3039316621592681E-002   3.7576959810037038E-002  0.63559385000000002        5.5402330341462175E-005   1.2788357397783338E-006
 chl          31   7.2613346462686424E-006   1.6871398563576763E-004   4.3039316621592681E-002
 chl2c          32   5.9648849098825736E-002   2.0893126428578448E-002  0.24722667500000001        5.5402330341462175E-005   2.1777796507681041E-006
 chl          32   1.0077278210571216E-005   1.6894338051477340E-004   5.9648849098825736E-002
 chl2c          33   4.9866922365542216E-002   3.7458922634011876E-002  0.60343137499999999        5.5402330341462175E-005   1.5058104122789188E-006
 chl          33   8.4188346086236178E-006   1.6882603155074573E-004   4.9866922365542216E-002
 chl2c          34   3.3790305331864959E-002   2.5350269098008315E-002  0.38241020000000003        2.9475826062010910E-005   5.4626755379317796E-007
 chl          34   5.6831445407018245E-006   1.6818861164129528E-004   3.3790305331864959E-002
 chl2c          35   2.5740370148566064E-002   2.5740370148566064E-002  0.49574644999999995        2.9475826062010910E-005   7.2993165293398535E-017
 chl          35   4.3220803718204392E-006   1.6791057575608377E-004   2.5740370148566064E-002
 chl2c          36   3.7770393924465726E-002   3.7770393924465726E-002  0.69587337500000002        5.5402330341462175E-005   7.6095758852879720E-017
 chl          36   6.3476272312392938E-006   1.6805827452934312E-004   3.7770393924465726E-002
 chl2c          37   2.1353674699533250E-002   2.1353674699533250E-002  0.33194060000000003        5.5402330341462175E-005   6.6848632653781202E-017
 chl          37   3.5855078133066679E-006   1.6791057575608006E-004   2.1353674699533250E-002
 chl2c          38   2.1543295686358745E-002   2.1543295686358745E-002  0.38455722500000000        5.5402330341462175E-005   1.0304560151478710E-016
 chl          38   3.6173471823804465E-006   1.6791057575610204E-004   2.1543295686358745E-002
 chl2c          39   2.5670077108751441E-002   2.5670077108751441E-002  0.47091117500000002        2.9475826062010910E-005   8.3026916034470089E-017
 chl          39   4.3102774270336776E-006   1.6791057575608987E-004   2.5670077108751441E-002
 chl2c          40   3.7687445774703773E-002   3.7687445774703773E-002  0.66875547499999999        5.5402330341462175E-005   1.0012067953481600E-016
 chl          40   6.3336871083154489E-006   1.6805827452935770E-004   3.7687445774703773E-002
 chl2c          41   2.5582381488167241E-002   2.5582381488167241E-002  0.44304987499999998        2.9475826062010910E-005   6.0209844207558689E-017
 chl          41   4.2955524048897426E-006   1.6791057575607605E-004   2.5582381488167241E-002
 chl2c          42   3.7949995630725070E-002   3.7949995630725070E-002  0.76234377499999995        5.5402330341462175E-005   8.4481473516414711E-017
 chl          42   6.3778107837213993E-006   1.6805827451947839E-004   3.7949995630725070E-002
 chl2c          43   2.1185090152268007E-002   2.1185090152268007E-002  0.29539925000000000        5.5402330341462175E-005   4.4541853201663969E-007
 chl          43   3.5625280104842597E-006   1.6816204155274114E-004   2.1185090152268007E-002
 chl2c          44   3.7536352708156646E-002   3.7536352708156646E-002  0.62417262500000004        5.5402330341462175E-005   7.2190263809022546E-017
 chl          44   6.3082946678870752E-006   1.6805827451947091E-004   3.7536352708156646E-002
 chl2c          45   4.6544927192009838E-002   4.6544927192009838E-002  0.37662252499999999        2.5236355254676324E-005   5.3946375732814757E-018
 chl          45   7.8153855233339909E-006   1.6791057575605412E-004   4.6544927192009838E-002
 chl2c          46   5.2481030446626817E-002   3.7083195475449568E-002  0.51876034999999998        5.5402330341462175E-005   1.6174133039164520E-006
 chl          46   8.8628486723981864E-006   1.6887718470794317E-004   5.2481030446626817E-002
 chl2c          47   3.7519784612651236E-002   3.7519784612651236E-002  0.61962282499999999        5.5402330341462175E-005   9.2154362913316283E-017
 chl          47   6.3055102623448180E-006   1.6805827451948306E-004   3.7519784612651236E-002
 chl2c          48   3.7823212136301673E-002   3.7823212136301673E-002  0.71424949999999998        5.5402330341462175E-005   8.8633141152439167E-017
 chl          48   6.3565037684111491E-006   1.6805827451948091E-004   3.7823212136301673E-002
 chl2c          49   3.7152990741888416E-002   3.7152990741888416E-002  0.53276120000000005        5.5402330341462175E-005   8.2494589585941021E-017
 chl          49   6.2438675173198780E-006   1.6805827451947720E-004   3.7152990741888416E-002
 chl2c          50   5.1366097584866932E-002   2.1533072915600981E-002  0.38132569999999999        5.5402330341462175E-005   1.6444092605261716E-006
 chl          50   8.6670927089917881E-006   1.6873177283269458E-004   5.1366097584866932E-002
 chl2c          51   2.0700971146093840E-002   2.0700971146093840E-002  0.22275920000000002        5.5402330341462175E-005   1.0948231315263929E-016
 chl          51   3.4759119838511529E-006   1.6791057575610594E-004   2.0700971146093840E-002
 chl2c          52   3.7581825176985564E-002   3.7581825176985564E-002  0.63698869999999996        5.5402330341462175E-005   9.8062640807346471E-017
 chl          52   6.3159366929081198E-006   1.6805827452935645E-004   3.7581825176985564E-002
 chl2c          53   3.7925801262726190E-002   3.7925801262726190E-002  0.75269794999999995        5.5402330341462175E-005   8.7837040970080551E-017
 chl          53   6.3737447203568161E-006   1.6805827452935024E-004   3.7925801262726190E-002
 chl2c          54   3.7082433371327092E-002   3.7082433371327092E-002  0.51861124999999997        5.5402330341462175E-005   7.2074446205314130E-017
 chl          54   6.2320097673684756E-006   1.6805827451947086E-004   3.7082433371327092E-002
 chl2c          55   6.5056822230719208E-002   3.7357235588660491E-002  0.57808280000000001        5.5402330341462175E-005   2.0306803843949908E-006
 chl          55   1.0999920098798661E-005   1.6908173073360789E-004   6.5056822230719208E-002
 chl2c          56   3.7507394187257688E-002   3.7507394187257688E-002  0.61626080000000005        5.5402330341462175E-005   9.8321245580095718E-017
 chl          56   6.3034279492029458E-006   1.6805827452935659E-004   3.7507394187257688E-002
 chl2c          57   3.7727617852646313E-002   3.7727617852646313E-002  0.68163462500000005        5.5402330341462175E-005   9.2963449635636979E-007
 chl          57   6.3595534589440525E-006   1.6856493520960473E-004   3.7727617852646313E-002
 chl2c          58   5.6564776074403612E-002   3.7765358178394853E-002  0.69416802499999997        5.5402330341462175E-005   1.7059181616600229E-006
 chl          58   9.5553958508784816E-006   1.6892837758801697E-004   5.6564776074403612E-002
 chl2c          59   3.7173699120809672E-002   3.7173699120809672E-002  0.53705127500000005        5.5402330341462175E-005   2.8059819383566780E-007
 chl          59   6.2536648730232010E-006   1.6822821029189498E-004   3.7173699120809672E-002
 chl2c          60   3.9077697868808249E-002   3.7607757740906807E-002  0.64452155000000000        5.5402330341462175E-005   1.1523663734048742E-006
 chl          60   6.5904740203494215E-006   1.6865051883237795E-004   3.9077697868808249E-002
 chl2c          61   3.7805373434125003E-002   3.7805373434125003E-002  0.70794139999999994        5.5402330341462175E-005   8.5969046565448694E-017
 chl          61   6.3535058269036088E-006   1.6805827451947929E-004   3.7805373434125003E-002
 chl2c          62   3.7956103087269030E-002   3.7956103087269030E-002  0.76481592499999995        5.5402330341462175E-005   7.0183021056140304E-017
 chl          62   6.3788371923295501E-006   1.6805827451946969E-004   3.7956103087269030E-002
 chl2c          63   4.9737198097267475E-002   3.7855601011927406E-002  0.72597904999999996        5.5402330341462175E-005   1.4791131416886417E-006
 chl          63   8.3964528330160008E-006   1.6881636188262274E-004   4.9737198097267475E-002
 chl2c          64   2.5708982294816416E-002   2.5708982294816416E-002  0.48435739999999999        2.9475826062010910E-005   5.8584513903417258E-017
 chl          64   4.3168100192253641E-006   1.6791057575607504E-004   2.5708982294816416E-002
 chl2c          65   3.7953597170552002E-002   3.7953597170552002E-002  0.76379975000000000        5.5402330341462175E-005   2.0147224067992223E-007
 chl          65   6.3830497206858287E-006   1.6818036224609570E-004   3.7953597170552002E-002
 chl2c          66   3.1840477731474713E-002   3.1840477731474713E-002  0.35213202499999996        3.6115876427951821E-005   4.4438010634808855E-018
 chl          66   5.3463529482393573E-006   1.6791057575604214E-004   3.1840477731474713E-002
 chl2c          67   3.7937587124568600E-002   3.7937587124568600E-002  0.75736760000000003        5.5402330341462175E-005   8.2026232318810359E-017
 chl          67   6.3757254315873219E-006   1.6805827451947690E-004   3.7937587124568600E-002
 chl2c          68   5.5259909729166778E-002   3.7855407263856986E-002  0.72590779999999999        5.5402330341462175E-005   1.6568954610219520E-006
 chl          68   9.3336765698662277E-006   1.6890502745319926E-004   5.5259909729166778E-002
 chl2c          69   4.5434423946241621E-002   2.1732330561541505E-002  0.45524217500000003        5.5402330341462175E-005   1.3981230127937599E-006
 chl          69   7.6610975962471273E-006   1.6861879013392578E-004   4.5434423946241621E-002
 chl2c          70   3.2658010878182209E-002   3.2658010878182209E-002  0.48694062500000002        3.6115876427951821E-005   5.2548258491642264E-017
 chl          70   5.4836254096036165E-006   1.6791057575607136E-004   3.2658010878182209E-002
 chl2c          71   4.3481058864416305E-002   4.3481058864416305E-002  0.23986107500000001        2.5236355254676324E-005   4.9648992482012319E-018
 chl          71   7.3009296284065142E-006   1.6791057575604243E-004   4.3481058864416305E-002
 chl2c          72   3.7549776402781669E-002   3.7549776402781669E-002  0.62790522500000001        5.5402330341462175E-005   9.8630793813619036E-017
 chl          72   6.3105506312146444E-006   1.6805827452935678E-004   3.7549776402781669E-002
 chl2c          73   3.1852614277819484E-002   3.1852614277819484E-002  0.35362212500000001        3.6115876427951821E-005   5.5697805316742372E-018
 chl          73   5.3483908027238182E-006   1.6791057575604279E-004   3.1852614277819484E-002
 chl2c          74   4.6293548607921911E-002   3.7616827685877569E-002  0.64719590000000005        5.5402330341462175E-005   1.3811802620656372E-006
 chl          74   7.8127453624629219E-006   1.6876531606233310E-004   4.6293548607921911E-002
 chl2c          75   3.7826830779512356E-002   3.7826830779512356E-002  0.71554212500000003        5.5402330341462175E-005   7.7798746266488814E-017
 chl          75   6.3571119117183333E-006   1.6805827452934417E-004   3.7826830779512356E-002
 chl2c          76   5.8447081919892632E-002   3.7257729557919804E-002  0.55513977500000000        5.5402330341462175E-005   1.8095702340878604E-006
 chl          76   9.8759752755662637E-006   1.6897294015640066E-004   5.8447081919892632E-002
 chl2c          77   3.7138172437479272E-002   3.7138172437479272E-002  0.52973029999999999        5.5402330341462175E-005   8.0043167338898718E-007
 chl          77   6.2580847077695497E-006   1.6850814935238942E-004   3.7138172437479272E-002
 chl2c          78   4.7515248899399322E-002   4.7515248899399322E-002  0.45117492500000000        2.5236355254676324E-005   3.8042779709309075E-007
 chl          78   7.9888215865647539E-006   1.6813174236925333E-004   4.7515248899399322E-002
 prod   2.0327605411938091E-008   40.006308067245051        10.000000000000000     
 chl2c           1   5.0692694890049579E-002   3.7477407714772232E-002  0.60826437499999997        4.7831324025124864E-005   1.3225724162923188E-006
 chl           1   6.3695222537273293E-006   1.2564970687675153E-004   5.0692694890049579E-002
 chl2c           2   3.2640259920490348E-002   3.2640259920490348E-002  0.48302390000000001        3.1378408378802634E-005   3.9877772910824860E-008
 chl           2   4.0824797706769186E-006   1.2507497736297403E-004   3.2640259920490348E-002
 chl2c           3   3.7922212503796585E-002   3.7922212503796585E-002  0.75128689999999998        4.7831324025124864E-005   2.3636624601775996E-016
 chl           3   4.7458581737248454E-006   1.2514718578853260E-004   3.7922212503796585E-002
 chl2c           4  0.16591532767952946        3.7976509103863923E-002  0.77318742499999993        4.7831324025124864E-005   5.0520817744406854E-006
 chl           4   2.1064348032742440E-005   1.2695842106540556E-004  0.16591532767952946     
 chl2c           5  0.12561955082868440        2.5710500362372445E-002  0.48489679999999996        2.5562650262858056E-005   2.1669691071905198E-006
 chl           5   1.5804911044108518E-005   1.2581569461001107E-004  0.12561955082868440     
 chl2c           6   3.1261039902252048E-002   3.1261039902252048E-002  0.29222855000000003        3.1378408378802634E-005   4.5566077497903384E-017
 chl           6   3.9094286611534670E-006   1.2505753722133318E-004   3.1261039902252048E-002
 chl2c           7   4.3064391842467263E-002   4.3064391842467263E-002  0.22770740000000000        2.2044817488730837E-005   6.5513537309693644E-008
 chl           7   5.3867607118347918E-006   1.2508619026921271E-004   4.3064391842467263E-002
 chl2c           8   4.7969800906495587E-002   4.7969800906495587E-002  0.49578364999999996        2.2044817488730837E-005   3.8102655778100519E-008
 chl           8   5.9997846013626073E-006   1.2507420268551036E-004   4.7969800906495587E-002
 chl2c           9  0.14474147890228195        2.4803669054600401E-002  0.28700202499999999        2.5562650262858056E-005   3.7322384077794508E-006
 chl           9   1.8255339363937550E-005   1.2612375873444071E-004  0.14474147890228195     
 chl2c          10  0.15707911482133785        2.5387016219684602E-002  0.39094662499999999        2.5562650262858056E-005   3.3561541812092640E-006
 chl          10   1.9810742487486118E-005   1.2611951951740309E-004  0.15707911482133785     
 chl2c          11   2.1820572217820047E-002   2.1820572217820047E-002  0.49737575000000001        4.7831324025124864E-005   1.9782250016585724E-016
 chl          11   2.7288270223223227E-006   1.2505753722140208E-004   2.1820572217820047E-002
 chl2c          12   4.5290941298723353E-002   4.5290941298723353E-002  0.30768942500000002        2.2044817488730837E-005   3.3107167899024303E-018
 chl          12   5.6639735772534472E-006   1.2505753722131410E-004   4.5290941298723353E-002
 chl2c          13   3.7935816987997487E-002   3.7935816987997487E-002  0.75666275000000005        4.7831324025124864E-005   2.0217640862463491E-016
 chl          13   4.7475607363546425E-006   1.2514718578109766E-004   3.7935816987997487E-002
 chl2c          14   4.6856526101924839E-002   4.6856526101924839E-002  0.39804095000000000        2.2044817488730837E-005   3.5275969065928854E-017
 chl          14   5.8597617570536166E-006   1.2505753722132852E-004   4.6856526101924839E-002
 chl2c          15  0.10212364321688457        2.0954299823745293E-002  0.25607262500000000        4.7831324025124864E-005   4.0625155790494781E-006
 chl          15   1.2902933269691585E-005   1.2634619039480452E-004  0.10212364321688457     
 chl2c          16   3.7823443882273475E-002   3.7823443882273475E-002  0.71433214999999994        4.7831324025124864E-005   2.4441113707938731E-016
 chl          16   4.7334975586971525E-006   1.2514718578853623E-004   3.7823443882273475E-002
 chl2c          17   3.7542254757581245E-002   3.7542254757581245E-002  0.62580860000000005        4.7831324025124864E-005   2.4430966177351727E-016
 chl          17   4.6983075310675770E-006   1.2514718578853621E-004   3.7542254757581245E-002
 chl2c          18   2.5694475239060960E-002   2.5694475239060960E-002  0.47925950000000000        2.5562650262858056E-005   2.0434704707513241E-016
 chl          18   3.2132877935933346E-006   1.2505753722140498E-004   2.5694475239060960E-002
 chl2c          19  0.12285091895353571        3.7570220750293731E-002  0.63367130000000005        4.7831324025124864E-005   3.6446567867624120E-006
 chl          19   1.5536657001462215E-005   1.2646756844642278E-004  0.12285091895353571     
 chl2c          20   3.7020645196759419E-002   3.7020645196759419E-002  0.50678202500000002        4.7831324025124864E-005   2.1949249145812334E-016
 chl          20   4.6330295621752408E-006   1.2514718578110547E-004   3.7020645196759419E-002
 chl2c          21  0.12026553873301167        3.7838475073783531E-002  0.71973185000000006        4.7831324025124864E-005   3.4532621480376866E-006
 chl          21   1.5203276227303289E-005   1.2641423625976860E-004  0.12026553873301167     
 chl2c          22  0.15650644336853559        3.7613353106285476E-002  0.64616892500000001        4.7831324025124864E-005   4.9392825265953208E-006
 chl          22   1.9859419704586248E-005   1.2689202615014398E-004  0.15650644336853559     
 chl2c          23   3.2286562315070731E-002   3.2286562315070731E-002  0.41564179999999995        3.1378408378802634E-005   4.5925482383538230E-018
 chl          23   4.0376779684652532E-006   1.2505753722131467E-004   3.2286562315070731E-002
 chl2c          24   3.7348402796863071E-002   3.7348402796863071E-002  0.57597492500000003        4.7831324025124864E-005   1.8347434232649994E-016
 chl          24   4.6740475034459744E-006   1.2514718578108920E-004   3.7348402796863071E-002
 chl2c          25   4.5426679235459781E-002   4.5426679235459781E-002  0.31406487500000002        2.2044817488730837E-005   3.5047942528116676E-018
 chl          25   5.6809486293292114E-006   1.2505753722131418E-004   4.5426679235459781E-002
 chl2c          26   4.7955660680174553E-002   4.7955660680174553E-002  0.49427735000000000        2.2044817488730837E-005   3.1825906152454064E-018
 chl          26   5.9972168204836359E-006   1.2505753722131404E-004   4.7955660680174553E-002
 chl2c          27   4.5333133499525620E-002   4.5333133499525620E-002  0.30964730000000001        2.2044817488730837E-005   3.4985099015006953E-017
 chl          27   5.6692500299763749E-006   1.2505753722132841E-004   4.5333133499525620E-002
 chl2c          28   3.1209236063453518E-002   3.1209236063453518E-002  0.28776342500000002        3.1378408378802634E-005   3.4777924151087532E-017
 chl          28   3.9029502006545595E-006   1.2505753722132830E-004   3.1209236063453518E-002
 chl2c          29  0.13637043993895942        3.7743217595736761E-002  0.68676297499999994        4.7831324025124864E-005   4.0694619022204088E-006
 chl          29   1.7266949414254307E-005   1.2661797836820900E-004  0.13637043993895942     
 chl2c          30   2.5380056985171612E-002   2.5380056985171612E-002  0.38930277499999999        2.5562650262858056E-005   2.1879391871134119E-016
 chl          30   3.1739674211046440E-006   1.2505753722141151E-004   2.5380056985171612E-002
 chl2c          31   9.5494328930127034E-002   3.7576959810037038E-002  0.63559385000000002        4.7831324025124864E-005   2.6876077356139114E-006
 chl          31   1.2045713915255000E-005   1.2614062060239010E-004   9.5494328930127034E-002
 chl2c          32  0.10827627287989405        2.0893126428578448E-002  0.24722667500000001        4.7831324025124864E-005   4.6073502139293856E-006
 chl          32   1.3693555097607443E-005   1.2646865960003149E-004  0.10827627287989405     
 chl2c          33  0.12714262091791559        3.7458922634011876E-002  0.60343137499999999        4.7831324025124864E-005   3.8523978062071068E-006
 chl          33   1.6087497805594184E-005   1.2653111670539194E-004  0.12714262091791559     
 chl2c          34   5.4424692773318732E-002   2.5350269098008315E-002  0.38241020000000003        2.5562650262858056E-005   8.1104823310606938E-007
 chl          34   6.8225864675402146E-006   1.2535829087647018E-004   5.4424692773318732E-002
 chl2c          35   2.5740370148566064E-002   2.5740370148566064E-002  0.49574644999999995        2.5562650262858056E-005   1.7057016995233700E-016
 chl          35   3.2190272979466494E-006   1.2505753722138972E-004   2.5740370148566064E-002
 chl2c          36   3.7770393924465726E-002   3.7770393924465726E-002  0.69587337500000002        4.7831324025124864E-005   1.9388618897602541E-016
 chl          36   4.7268585057704512E-006   1.2514718578851344E-004   3.7770393924465726E-002
 chl2c          37   2.1353674699533250E-002   2.1353674699533250E-002  0.33194060000000003        4.7831324025124864E-005   1.5895109928714887E-016
 chl          37   2.6704379685502156E-006   1.2505753722138449E-004   2.1353674699533250E-002
 chl2c          38   2.1543295686358745E-002   2.1543295686358745E-002  0.38455722500000000        4.7831324025124864E-005   2.2211007967470316E-016
 chl          38   2.6941515021687154E-006   1.2505753722141303E-004   2.1543295686358745E-002
 chl2c          39   2.5670077108751441E-002   2.5670077108751441E-002  0.47091117500000002        2.5562650262858056E-005   1.8871043990794278E-016
 chl          39   3.2102366235038391E-006   1.2505753722139796E-004   2.5670077108751441E-002
 chl2c          40   3.7687445774703773E-002   3.7687445774703773E-002  0.66875547499999999        4.7831324025124864E-005   2.4480277341138047E-016
 chl          40   4.7164777782622449E-006   1.2514718578853642E-004   3.7687445774703773E-002
 chl2c          41   2.5582381488167241E-002   2.5582381488167241E-002  0.44304987499999998        2.5562650262858056E-005   1.4593230761340654E-016
 chl          41   3.1992696251679817E-006   1.2505753722137861E-004   2.5582381488167241E-002
 chl2c          42   3.7949995630725070E-002   3.7949995630725070E-002  0.76234377499999995        4.7831324025124864E-005   2.1213659431865971E-016
 chl          42   4.7493351535903654E-006   1.2514718578110216E-004   3.7949995630725070E-002
 chl2c          43   5.2740364825629167E-002   2.1185090152268007E-002  0.29539925000000000        4.7831324025124864E-005   1.5354607774460491E-006
 chl          43   6.6251393502948193E-006   1.2561800382304778E-004   5.2740364825629167E-002
 chl2c          44   3.7536352708156646E-002   3.7536352708156646E-002  0.62417262500000004        4.7831324025124864E-005   1.8520253479691927E-016
 chl          44   4.6975689059122002E-006   1.2514718578108999E-004   3.7536352708156646E-002
 chl2c          45   4.6544927192009838E-002   4.6544927192009838E-002  0.37662252499999999        2.2044817488730837E-005   4.2312094175721623E-018
 chl          45   5.8207939647781437E-006   1.2505753722131450E-004   4.6544927192009838E-002
 chl2c          46  0.11784897041046542        3.7083195475449568E-002  0.51876034999999998        4.7831324025124864E-005   3.6469229744983483E-006
 chl          46   1.4901528528023002E-005   1.2644597976648671E-004  0.11784897041046542     
 chl2c          47   3.7519784612651236E-002   3.7519784612651236E-002  0.61962282499999999        4.7831324025124864E-005   2.2837999648975719E-016
 chl          47   4.6954954553866768E-006   1.2514718578110948E-004   3.7519784612651236E-002
 chl2c          48   3.7823212136301673E-002   3.7823212136301673E-002  0.71424949999999998        4.7831324025124864E-005   2.2097849664826246E-016
 chl          48   4.7334685560599339E-006   1.2514718578110614E-004   3.7823212136301673E-002
 chl2c          49   3.7152990741888416E-002   3.7152990741888416E-002  0.53276120000000005        4.7831324025124864E-005   2.0786021513192059E-016
 chl          49   4.6495922346986056E-006   1.2514718578110021E-004   3.7152990741888416E-002
 chl2c          50  0.11068057812191991        2.1533072915600981E-002  0.38132569999999999        4.7831324025124864E-005   3.7294921596881682E-006
 chl          50   1.3983181765517984E-005   1.2633817064196075E-004  0.11068057812191991     
 chl2c          51   2.0700971146093840E-002   2.0700971146093840E-002  0.22275920000000002        4.7831324025124864E-005   2.3213385116694141E-016
 chl          51   2.5888124696221215E-006   1.2505753722141756E-004   2.0700971146093840E-002
 chl2c          52   3.7581825176985564E-002   3.7581825176985564E-002  0.63698869999999996        4.7831324025124864E-005   2.4060218683701951E-016
 chl          52   4.7032596576964373E-006   1.2514718578853453E-004   3.7581825176985564E-002
 chl2c          53   3.7925801262726190E-002   3.7925801262726190E-002  0.75269794999999995        4.7831324025124864E-005   2.1929275915030723E-016
 chl          53   4.7463072968050684E-006   1.2514718578852493E-004   3.7925801262726190E-002
 chl2c          54   3.7082433371327092E-002   3.7082433371327092E-002  0.51861124999999997        4.7831324025124864E-005   1.8494319722494113E-016
 chl          54   4.6407621783363580E-006   1.2514718578108985E-004   3.7082433371327092E-002
 chl2c          55  0.15138160159370656        3.7357235588660491E-002  0.57808280000000001        4.7831324025124864E-005   4.9048043468849456E-006
 chl          55   1.9204361804131093E-005   1.2686060658595572E-004  0.15138160159370656     
 chl2c          56   3.7507394187257688E-002   3.7507394187257688E-002  0.61626080000000005        4.7831324025124864E-005   2.4113161019338180E-016
 chl          56   4.6939448287965469E-006   1.2514718578853477E-004   3.7507394187257688E-002
 chl2c          57   6.5421658397350563E-002   3.7727617852646313E-002  0.68163462500000005        4.7831324025124864E-005   1.7307118476073361E-006
 chl          57   8.2301313050322708E-006   1.2580132492278083E-004   6.5421658397350563E-002
 chl2c          58  0.14420301320178197        3.7765358178394853E-002  0.69416802499999997        4.7831324025124864E-005   4.3529761394413377E-006
 chl          58   1.8272440520814654E-005   1.2671330588110661E-004  0.14420301320178197     
 chl2c          59   4.2818352875767948E-002   3.7173699120809672E-002  0.53705127500000005        4.7831324025124864E-005   1.1127470319836384E-006
 chl          59   5.3767250662505665E-006   1.2557057208273416E-004   4.2818352875767948E-002
 chl2c          60  0.10909946384292388        3.7607757740906807E-002  0.64452155000000000        4.7831324025124864E-005   3.1408426845483106E-006
 chl          60   1.3779093985499870E-005   1.2629845739057290E-004  0.10909946384292388     
 chl2c          61   3.7805373434125003E-002   3.7805373434125003E-002  0.70794139999999994        4.7831324025124864E-005   2.1531920287119997E-016
 chl          61   4.7312360926844405E-006   1.2514718578110359E-004   3.7805373434125003E-002
 chl2c          62   3.7956103087269030E-002   3.7956103087269030E-002  0.76481592499999995        4.7831324025124864E-005   1.8069291539925387E-016
 chl          62   4.7500994845885827E-006   1.2514718578108793E-004   3.7956103087269030E-002
 chl2c          63  0.12929097975265172        3.7855601011927406E-002  0.72597904999999996        4.7831324025124864E-005   3.7620742858689907E-006
 chl          63   1.6357954323479977E-005   1.2652046070634314E-004  0.12929097975265172     
 chl2c          64   2.5708982294816416E-002   2.5708982294816416E-002  0.48435739999999999        2.5562650262858056E-005   1.4266822791302961E-016
 chl          64   3.2151020102577291E-006   1.2505753722137712E-004   2.5708982294816416E-002
 chl2c          65   3.7953597170552002E-002   3.7953597170552002E-002  0.76379975000000000        4.7831324025124864E-005   8.5130402568595512E-007
 chl          65   4.7627222532256558E-006   1.2548803297414527E-004   3.7953597170552002E-002
 chl2c          66   3.1840477731474713E-002   3.1840477731474713E-002  0.35213202499999996        3.1378408378802634E-005   3.4841248164730018E-018
 chl          66   3.9818917290483240E-006   1.2505753722131418E-004   3.1840477731474713E-002
 chl2c          67   3.7937587124568600E-002   3.7937587124568600E-002  0.75736760000000003        4.7831324025124864E-005   2.0684788830940993E-016
 chl          67   4.7477822639650444E-006   1.2514718578109975E-004   3.7937587124568600E-002
 chl2c          68  0.14348054706354027        3.7855407263856986E-002  0.72590779999999999        4.7831324025124864E-005   4.2767632123039724E-006
 chl          68   1.8178078894733653E-005   1.2669368264036171E-004  0.14348054706354027     
 chl2c          69   9.9528057372685205E-002   2.1732330561541505E-002  0.45524217500000003        4.7831324025124864E-005   3.0462765146708565E-006
 chl          69   1.2555195792666872E-005   1.2614730081240950E-004   9.9528057372685205E-002
 chl2c          70   3.2658010878182209E-002   3.2658010878182209E-002  0.48694062500000002        3.1378408378802634E-005   4.2525213541825440E-017
 chl          70   4.0841304109729304E-006   1.2505753722133180E-004   3.2658010878182209E-002
 chl2c          71   4.3481058864416305E-002   4.3481058864416305E-002  0.23986107500000001        2.2044817488730837E-005   3.8934889136589899E-018
 chl          71   5.4376341373594807E-006   1.2505753722132765E-004   4.3481058864416305E-002
 chl2c          72   3.7549776402781669E-002   3.7549776402781669E-002  0.62790522500000001        4.7831324025124864E-005   2.4176472226120859E-016
 chl          72   4.6992488437968667E-006   1.2514718578853504E-004   3.7549776402781669E-002
 chl2c          73   3.1852614277819484E-002   3.1852614277819484E-002  0.35362212500000001        3.1378408378802634E-005   4.3688827507637940E-018
 chl          73   3.9834094956445854E-006   1.2505753722131456E-004   3.1852614277819484E-002
 chl2c          74  0.12428737030376590        3.7616827685877569E-002  0.64719590000000005        4.7831324025124864E-005   3.6789123220903560E-006
 chl          74   1.5720014975935187E-005   1.2648119384547693E-004  0.12428737030376590     
 chl2c          75   3.7826830779512356E-002   3.7826830779512356E-002  0.71554212500000003        4.7831324025124864E-005   1.9763567256879999E-016
 chl          75   4.7339214193543549E-006   1.2514718578851512E-004   3.7826830779512356E-002
 chl2c          76  0.13901171212147601        3.7257729557919804E-002  0.55513977500000000        4.7831324025124864E-005   4.4351584471526193E-006
 chl          76   1.7613725752850451E-005   1.2670677516336622E-004  0.13901171212147601     
 chl2c          77   8.3198851539127053E-002   3.7138172437479272E-002  0.52973029999999999        4.7831324025124864E-005   2.3604918344789826E-006
 chl          77   1.0484493538460534E-005   1.2601728683153576E-004   8.3198851539127053E-002
 chl2c          78   4.7515248899399322E-002   4.7515248899399322E-002  0.45117492500000000        2.2044817488730837E-005   1.8160080144707654E-007
 chl          78   5.9460177096485122E-006   1.2513914685025843E-004   4.7515248899399322E-002
 prod   1.5909760074335871E-008   34.428730578278987        10.000000000000000     
 chl2c           1  0.10456974999596994        3.7477407714772232E-002  0.60826437499999997        3.9864650176381609E-005   2.5170340827526950E-006
 chl           1   8.6660441688650644E-006   8.2873337358070086E-005  0.10456974999596994     
 chl2c           2   3.2640259920490348E-002   3.2640259920490348E-002  0.48302390000000001        2.6337368506671323E-005   2.1997808894084937E-008
 chl           2   2.6834963061487387E-006   8.2214305666853437E-005   3.2640259920490348E-002
 chl2c           3   3.7922212503796585E-002   3.7922212503796585E-002  0.75128689999999998        3.9864650176381609E-005   3.3778370820212985E-016
 chl           3   3.1197763443888639E-006   8.2267782874654986E-005   3.7922212503796585E-002
 chl2c           4  0.24330792917567878        3.7976509103863923E-002  0.77318742499999993        3.9864650176381609E-005   7.0765550882782832E-006
 chl           4   2.0399036100750684E-005   8.3840408201500512E-005  0.24330792917567878     
 chl2c           5  0.15034908651865100        2.5710500362372445E-002  0.48489679999999996        2.1437015401903424E-005   2.3357500681818062E-006
 chl           5   1.2438219453363708E-005   8.2728932655142743E-005  0.15034908651865100     
 chl2c           6   3.1261039902252048E-002   3.1261039902252048E-002  0.29222855000000003        2.6337368506671323E-005   3.4499529365775952E-017
 chl           6   2.5699081089057424E-006   8.2208017293775498E-005   3.1261039902252048E-002
 chl2c           7   4.3064391842467263E-002   4.3064391842467263E-002  0.22770740000000000        1.8624157382077250E-005   4.6581818184837916E-008
 chl           7   3.5408113743863961E-006   8.2221325389638530E-005   4.3064391842467263E-002
 chl2c           8   4.7969800906495587E-002   4.7969800906495587E-002  0.49578364999999996        1.8624157382077250E-005   3.3159881799899990E-008
 chl           8   3.9439565134225762E-006   8.2217487646243809E-005   4.7969800906495587E-002
 chl2c           9  0.17918029638162600        2.4803669054600401E-002  0.28700202499999999        2.1437015401903424E-005   5.1121459665777356E-006
 chl           9   1.4874913651022023E-005   8.3016458569422079E-005  0.17918029638162600     
 chl2c          10  0.19013698830151160        2.5387016219684602E-002  0.39094662499999999        2.1437015401903424E-005   3.9676545510468411E-006
 chl          10   1.5775435195622019E-005   8.2968786539344827E-005  0.19013698830151160     
 chl2c          11   2.1820572217820047E-002   2.1820572217820047E-002  0.49737575000000001        3.9864650176381609E-005   2.6541622926713384E-016
 chl          11   1.7938259782441252E-006   8.2208017293844128E-005   2.1820572217820047E-002
 chl2c          12   4.5290941298723353E-002   4.5290941298723353E-002  0.30768942500000002        1.8624157382077250E-005   2.4021615875394353E-018
 chl          12   3.7232784855363880E-006   8.2208017293765957E-005   4.5290941298723353E-002
 chl2c          13   3.7935816987997487E-002   3.7935816987997487E-002  0.75666275000000005        3.9864650176381609E-005   2.9490892577649220E-016
 chl          13   3.1208955549540037E-006   8.2267782869719765E-005   3.7935816987997487E-002
 chl2c          14   4.6856526101924839E-002   4.6856526101924839E-002  0.39804095000000000        1.8624157382077250E-005   2.6604023575331312E-017
 chl          14   3.8519821081131700E-006   8.2208017293773153E-005   4.6856526101924839E-002
 chl2c          15  0.12553331892933794        2.0954299823745293E-002  0.25607262500000000        3.9864650176381609E-005   4.9083873322029521E-006
 chl          15   1.0437463705463540E-005   8.3144967363913436E-005  0.12553331892933794     
 chl2c          16   3.7823443882273475E-002   3.7823443882273475E-002  0.71433214999999994        3.9864650176381609E-005   3.4762085074772517E-016
 chl          16   3.1116508688786839E-006   8.2267782874657954E-005   3.7823443882273475E-002
 chl2c          17   3.7542254757581245E-002   3.7542254757581245E-002  0.62580860000000005        3.9864650176381609E-005   3.4749734983261901E-016
 chl          17   3.0885180630217850E-006   8.2267782874657859E-005   3.7542254757581245E-002
 chl2c          18   2.5694475239060960E-002   2.5694475239060960E-002  0.47925950000000000        2.1437015401903424E-005   2.7243990998478353E-016
 chl          18   2.1122918648090268E-006   8.2208017293846215E-005   2.5694475239060960E-002
 chl2c          19  0.18933036256173658        3.7570220750293731E-002  0.63367130000000005        3.9864650176381609E-005   5.3817799827039626E-006
 chl          19   1.5804593980351080E-005   8.3476278006902030E-005  0.18933036256173658     
 chl2c          20   3.7020645196759419E-002   3.7020645196759419E-002  0.50678202500000002        3.9864650176381609E-005   3.1684305362359444E-016
 chl          20   3.0456064007441790E-006   8.2267782869726284E-005   3.7020645196759419E-002
 chl2c          21  0.19354339147960076        3.7838475073783531E-002  0.71973185000000006        3.9864650176381609E-005   5.2767402028139222E-006
 chl          21   1.6155965958897370E-005   8.3474645325723720E-005  0.19354339147960076     
 chl2c          22  0.22573047377939032        3.7613353106285476E-002  0.64616892500000001        3.9864650176381609E-005   6.9149938103152657E-006
 chl          22   1.8908896398831782E-005   8.3767583889943556E-005  0.22573047377939032     
 chl2c          23   3.2286562315070731E-002   3.2286562315070731E-002  0.41564179999999995        2.6337368506671323E-005   3.3343629225813357E-018
 chl          23   2.6542142731535958E-006   8.2208017293766228E-005   3.2286562315070731E-002
 chl2c          24   3.7348402796863071E-002   3.7348402796863071E-002  0.57597492500000003        3.9864650176381609E-005   2.7069681168009231E-016
 chl          24   3.0725702918228963E-006   8.2267782869712555E-005   3.7348402796863071E-002
 chl2c          25   4.5426679235459781E-002   4.5426679235459781E-002  0.31406487500000002        1.8624157382077250E-005   2.5432259056053441E-018
 chl          25   3.7344372321870386E-006   8.2208017293765998E-005   4.5426679235459781E-002
 chl2c          26   4.7955660680174553E-002   4.7955660680174553E-002  0.49427735000000000        1.8624157382077250E-005   2.3090486923971486E-018
 chl          26   3.9423397825297607E-006   8.2208017293765930E-005   4.7955660680174553E-002
 chl2c          27   4.5333133499525620E-002   4.5333133499525620E-002  0.30964730000000001        1.8624157382077250E-005   2.6381731893667024E-017
 chl          27   3.7267470227099262E-006   8.2208017293773086E-005   4.5333133499525620E-002
 chl2c          28   3.1209236063453518E-002   3.1209236063453518E-002  0.28776342500000002        2.6337368506671323E-005   2.6223432412171101E-017
 chl          28   2.5656494180298320E-006   8.2208017293773045E-005   3.1209236063453518E-002
 chl2c          29  0.19748954653737488        3.7743217595736761E-002  0.68676297499999994        3.9864650176381609E-005   5.5253184939356592E-006
 chl          29   1.6493827290433041E-005   8.3517470061695562E-005  0.19748954653737488     
 chl2c          30   2.5380056985171612E-002   2.5380056985171612E-002  0.38930277499999999        2.1437015401903424E-005   2.8768231491907327E-016
 chl          30   2.0864441635559054E-006   8.2208017293850742E-005   2.5380056985171612E-002
 chl2c          31  0.12591908099583402        3.7576959810037038E-002  0.63559385000000002        3.9864650176381609E-005   3.1299403339967667E-006
 chl          31   1.0452791116838910E-005   8.3011971133943846E-005  0.12591908099583402     
 chl2c          32  0.13489784276028796        2.0893126428578448E-002  0.24722667500000001        3.9864650176381609E-005   5.9178922070683258E-006
 chl          32   1.1232109017429922E-005   8.3263814955063887E-005  0.13489784276028796     
 chl2c          33  0.19227361876816265        3.7458922634011876E-002  0.60343137499999999        3.9864650176381609E-005   5.6246701866293681E-006
 chl          33   1.6057619896430190E-005   8.3514420747403471E-005  0.19227361876816265     
 chl2c          34   4.4284055226653386E-002   2.5350269098008315E-002  0.38241020000000003        2.1437015401903424E-005   5.3682461692827773E-007
 chl          34   3.6463767063745448E-006   8.2340623226842340E-005   4.4284055226653386E-002
 chl2c          35   2.5740370148566064E-002   2.5740370148566064E-002  0.49574644999999995        2.1437015401903424E-005   2.3509155824856461E-016
 chl          35   2.1160647943230363E-006   8.2208017293835116E-005   2.5740370148566064E-002
 chl2c          36   3.7770393924465726E-002   3.7770393924465726E-002  0.69587337500000002        3.9864650176381609E-005   2.8424421322254624E-016
 chl          36   3.1072865664675330E-006   8.2267782874639075E-005   3.7770393924465726E-002
 chl2c          37   2.1353674699533250E-002   2.1353674699533250E-002  0.33194060000000003        3.9864650176381609E-005   2.2165526618627355E-016
 chl          37   1.7554432589860734E-006   8.2208017293831118E-005   2.1353674699533250E-002
 chl2c          38   2.1543295686358745E-002   2.1543295686358745E-002  0.38455722500000000        3.9864650176381609E-005   2.9112231277566184E-016
 chl          38   1.7710316243507417E-006   8.2208017293851758E-005   2.1543295686358745E-002
 chl2c          39   2.5670077108751441E-002   2.5670077108751441E-002  0.47091117500000002        2.1437015401903424E-005   2.5545702677696683E-016
 chl          39   2.1102861428904746E-006   8.2208017293841160E-005   2.5670077108751441E-002
 chl2c          40   3.7687445774703773E-002   3.7687445774703773E-002  0.66875547499999999        3.9864650176381609E-005   3.4809735472410399E-016
 chl          40   3.1004626060937804E-006   8.2267782874658089E-005   3.7687445774703773E-002
 chl2c          41   2.5582381488167241E-002   2.5582381488167241E-002  0.44304987499999998        2.1437015401903424E-005   2.0622047572411686E-016
 chl          41   2.1030768597965251E-006   8.2208017293826727E-005   2.5582381488167241E-002
 chl2c          42   3.7949995630725070E-002   3.7949995630725070E-002  0.76234377499999995        3.9864650176381609E-005   3.0758122913013396E-016
 chl          42   3.1220620004554542E-006   8.2267782869723723E-005   3.7949995630725070E-002
 chl2c          43   9.4726459612513955E-002   2.1185090152268007E-002  0.29539925000000000        3.9864650176381609E-005   2.7793943242968530E-006
 chl          43   7.8455212106224576E-006   8.2822911810651222E-005   9.4726459612513955E-002
 chl2c          44   3.7536352708156646E-002   3.7536352708156646E-002  0.62417262500000004        3.9864650176381609E-005   2.7295739898292043E-016
 chl          44   3.0880325143156031E-006   8.2267782869713233E-005   3.7536352708156646E-002
 chl2c          45   4.6544927192009838E-002   4.6544927192009838E-002  0.37662252499999999        1.8624157382077250E-005   3.0714610240080903E-018
 chl          45   3.8263661795378309E-006   8.2208017293766147E-005   4.6544927192009838E-002
 chl2c          46  0.16072970060097103        3.7083195475449568E-002  0.51876034999999998        3.9864650176381609E-005   4.6419522188379594E-006
 chl          46   1.3389246916437768E-005   8.3302879719026110E-005  0.16072970060097103     
 chl2c          47   3.7519784612651236E-002   3.7519784612651236E-002  0.61962282499999999        3.9864650176381609E-005   3.2792507029254817E-016
 chl          47   3.0866694938326120E-006   8.2267782869729564E-005   3.7519784612651236E-002
 chl2c          48   3.7823212136301673E-002   3.7823212136301673E-002  0.71424949999999998        3.9864650176381609E-005   3.1870418841621241E-016
 chl          48   3.1116318034648824E-006   8.2267782869726826E-005   3.7823212136301673E-002
 chl2c          49   3.7152990741888416E-002   3.7152990741888416E-002  0.53276120000000005        3.9864650176381609E-005   3.0215906096787803E-016
 chl          49   3.0564941753144648E-006   8.2267782869721920E-005   3.7152990741888416E-002
 chl2c          50  0.15128765426575244        2.1533072915600981E-002  0.38132569999999999        3.9864650176381609E-005   4.9987090296526564E-006
 chl          50   1.2595075708622557E-005   8.3252501796993967E-005  0.15128765426575244     
 chl2c          51   2.0700971146093840E-002   2.0700971146093840E-002  0.22275920000000002        3.9864650176381609E-005   3.0139061076671239E-016
 chl          51   1.7017857939776719E-006   8.2208017293854807E-005   2.0700971146093840E-002
 chl2c          52   3.7581825176985564E-002   3.7581825176985564E-002  0.63698869999999996        3.9864650176381609E-005   3.4297499685408593E-016
 chl          52   3.0917734336935487E-006   8.2267782874656531E-005   3.7581825176985564E-002
 chl2c          53   3.7925801262726190E-002   3.7925801262726190E-002  0.75269794999999995        3.9864650176381609E-005   3.1659264804156489E-016
 chl          53   3.1200715836295203E-006   8.2267782874661477E-005   3.7925801262726190E-002
 chl2c          54   3.7082433371327092E-002   3.7082433371327092E-002  0.51861124999999997        3.9864650176381609E-005   2.7261847358424633E-016
 chl          54   3.0506895768729413E-006   8.2267782869713125E-005   3.7082433371327092E-002
 chl2c          55  0.21597689776131104        3.7357235588660491E-002  0.57808280000000001        3.9864650176381609E-005   6.8725784267391806E-006
 chl          55   1.8083983497938633E-005   8.3731101267712086E-005  0.21597689776131104     
 chl2c          56   3.7507394187257688E-002   3.7507394187257688E-002  0.61626080000000005        3.9864650176381609E-005   3.4362199635662509E-016
 chl          56   3.0856501611914772E-006   8.2267782874656721E-005   3.7507394187257688E-002
 chl2c          57   7.6416614078259615E-002   3.7727617852646313E-002  0.68163462500000005        3.9864650176381609E-005   1.7154795757240049E-006
 chl          57   6.3190224098364114E-006   8.2691735116201145E-005   7.6416614078259615E-002
 chl2c          58  0.21837472198038943        3.7765358178394853E-002  0.69416802499999997        3.9864650176381609E-005   6.3504807968367625E-006
 chl          58   1.8273396125148416E-005   8.3679081348936576E-005  0.21837472198038943     
 chl2c          59   9.2669988715072121E-002   3.7173699120809672E-002  0.53705127500000005        3.9864650176381609E-005   2.2323231450841894E-006
 chl          59   7.6735045838843775E-006   8.2804634923154310E-005   9.2669988715072121E-002
 chl2c          60  0.17591822575408594        3.7607757740906807E-002  0.64452155000000000        3.9864650176381609E-005   4.8228180282600768E-006
 chl          60   1.4665985236634775E-005   8.3368196636636084E-005  0.17591822575408594     
 chl2c          61   3.7805373434125003E-002   3.7805373434125003E-002  0.70794139999999994        3.9864650176381609E-005   3.1159849706613814E-016
 chl          61   3.1101642529874551E-006   8.2267782869724726E-005   3.7805373434125003E-002
 chl2c          62   3.7956103087269030E-002   3.7956103087269030E-002  0.76481592499999995        3.9864650176381609E-005   2.6704846005947923E-016
 chl          62   3.1225644473638340E-006   8.2267782869711471E-005   3.7956103087269030E-002
 chl2c          63  0.19919047741916218        3.7855601011927406E-002  0.72597904999999996        3.9864650176381609E-005   5.4715991955983898E-006
 chl          63   1.6635441862573727E-005   8.3515246703120717E-005  0.19919047741916218     
 chl2c          64   2.5708982294816416E-002   2.5708982294816416E-002  0.48435739999999999        2.1437015401903424E-005   2.0228587388158755E-016
 chl          64   2.1134844610989182E-006   8.2208017293825371E-005   2.5708982294816416E-002
 chl2c          65   7.9993150148909203E-002   3.7953597170552002E-002  0.76379975000000000        3.9864650176381609E-005   1.7809715635763886E-006
 chl          65   6.6161284089671522E-006   8.2708686889453257E-005   7.9993150148909203E-002
 chl2c          66   3.1840477731474713E-002   3.1840477731474713E-002  0.35213202499999996        2.6337368506671323E-005   2.5282011150079066E-018
 chl          66   2.6175425439908445E-006   8.2208017293765998E-005   3.1840477731474713E-002
 chl2c          67   3.7937587124568600E-002   3.7937587124568600E-002  0.75736760000000003        3.9864650176381609E-005   3.0087140035459568E-016
 chl          67   3.1210411801651525E-006   8.2267782869721527E-005   3.7937587124568600E-002
 chl2c          68  0.22024817398663227        3.7855407263856986E-002  0.72590779999999999        3.9864650176381609E-005   6.3022185849582772E-006
 chl          68   1.8430076766557210E-005   8.3678681339150647E-005  0.22024817398663227     
 chl2c          69  0.13405745683870524        2.1732330561541505E-002  0.45524217500000003        3.9864650176381609E-005   3.7873597031910682E-006
 chl          69   1.1134942979963336E-005   8.3060974320590280E-005  0.13405745683870524     
 chl2c          70   3.2658010878182209E-002   3.2658010878182209E-002  0.48694062500000002        2.6337368506671323E-005   3.2159920652066209E-017
 chl          70   2.6847503230538882E-006   8.2208017293774793E-005   3.2658010878182209E-002
 chl2c          71   4.3481058864416305E-002   4.3481058864416305E-002  0.23986107500000001        1.8624157382077250E-005   2.8258293459166615E-018
 chl          71   3.5744916410825064E-006   8.2208017339885234E-005   4.3481058864416305E-002
 chl2c          72   3.7549776402781669E-002   3.7549776402781669E-002  0.62790522500000001        3.9864650176381609E-005   3.4439518092268136E-016
 chl          72   3.0891368520959596E-006   8.2267782874656951E-005   3.7549776402781669E-002
 chl2c          73   3.1852614277819484E-002   3.1852614277819484E-002  0.35362212500000001        2.6337368506671323E-005   3.1716177776161771E-018
 chl          73   2.6185402654026480E-006   8.2208017293766187E-005   3.1852614277819484E-002
 chl2c          74  0.19472465060586761        3.7616827685877569E-002  0.64719590000000005        3.9864650176381609E-005   5.5516702617642331E-006
 chl          74   1.6261978260554061E-005   8.3512684243912787E-005  0.19472465060586761     
 chl2c          75   3.7826830779512356E-002   3.7826830779512356E-002  0.71554212500000003        3.9864650176381609E-005   2.8908092195969870E-016
 chl          75   3.1119295014046911E-006   8.2267782874640512E-005   3.7826830779512356E-002
 chl2c          76  0.20056065502924017        3.7257729557919804E-002  0.55513977500000000        3.9864650176381609E-005   6.2588261485536314E-006
 chl          76   1.6769519806858315E-005   8.3613208205834044E-005  0.20056065502924017     
 chl2c          77  0.14200118614405560        3.7138172437479272E-002  0.52973029999999999        3.9864650176381609E-005   3.8670192681836838E-006
 chl          77   1.1807768415576629E-005   8.3152604116968641E-005  0.14200118614405560     
 chl2c          78   4.7515248899399322E-002   4.7515248899399322E-002  0.45117492500000000        1.8624157382077250E-005   5.5507800121245030E-008
 chl          78   3.9069175635653184E-006   8.2224499588272367E-005   4.7515248899399322E-002
 prod   1.1524554876067921E-008   28.596721751856521        10.000000000000000     
 chl2c           1  0.24573569705621717        3.7477407714772232E-002  0.60826437499999997        3.2102014078270842E-005   6.6179053047727706E-006
 chl           1   4.5123070561452113E-006   1.8362440256748400E-005  0.24573569705621717     
 chl2c           2   3.2640259920490348E-002   3.2640259920490348E-002  0.48302390000000001        2.1367162245245688E-005   3.1723766434453992E-009
 chl           2   5.8663138513218325E-007   1.7972632159216287E-005   3.2640259920490348E-002
 chl2c           3   3.7922212503796585E-002   3.7922212503796585E-002  0.75128689999999998        3.2102014078270842E-005   5.8247307393645212E-016
 chl           3   6.8495201544855382E-007   1.8062026717981706E-005   3.7922212503796585E-002
 chl2c           4  0.37311977176274630        3.7976509103863923E-002  0.77318742499999993        3.2102014078270842E-005   1.1574490737472348E-005
 chl           4   6.9210491847721722E-006   1.8549135448048632E-005  0.37311977176274630     
 chl2c           5  0.12165651908049706        2.5710500362372445E-002  0.48489679999999996        1.7399522087622060E-005   1.4128564063479280E-006
 chl           5   2.1951581864760049E-006   1.8043901001503454E-005  0.12165651908049706     
 chl2c           6   3.1261039902252048E-002   3.1261039902252048E-002  0.29222855000000003        2.1367162245245688E-005   1.7127061979121359E-017
 chl           6   5.6183714079877579E-007   1.7972439258436218E-005   3.1261039902252048E-002
 chl2c           7   4.3064391842467263E-002   4.3064391842467263E-002  0.22770740000000000        1.5223096336704461E-005   1.9037484359140563E-008
 chl           7   7.7402183240762213E-007   1.7973592550408035E-005   4.3064391842467263E-002
 chl2c           8   4.7969800906495587E-002   4.7969800906495587E-002  0.49578364999999996        1.5223096336704461E-005   1.7729293877466047E-008
 chl           8   8.6218583094775441E-007   1.7973512807117068E-005   4.7969800906495587E-002
 chl2c           9  0.21649877682066979        2.4803669054600401E-002  0.28700202499999999        1.7399522087622060E-005   7.6672320252906700E-006
 chl           9   3.9333216499790220E-006   1.8167870081026230E-005  0.21649877682066979     
 chl2c          10  0.20353169693117232        2.5387016219684602E-002  0.39094662499999999        1.7399522087622060E-005   3.6936238449362215E-006
 chl          10   3.6882539017064702E-006   1.8121275247627477E-005  0.20353169693117232     
 chl2c          11   2.1820572217820047E-002   2.1820572217820047E-002  0.49737575000000001        3.2102014078270842E-005   3.9909162471726091E-016
 chl          11   3.9216890876963320E-007   1.7972439258461036E-005   2.1820572217820047E-002
 chl2c          12   4.5290941298723353E-002   4.5290941298723353E-002  0.30768942500000002        1.5223096336704461E-005   1.0343588026645533E-018
 chl          12   8.1398869144865865E-007   1.7972439258435178E-005   4.5290941298723353E-002
 chl2c          13   3.7935816987997487E-002   3.7935816987997487E-002  0.75666275000000005        3.2102014078270842E-005   5.3513464624011846E-016
 chl          13   6.8519773996417472E-007   1.8062026716887750E-005   3.7935816987997487E-002
 chl2c          14   4.6856526101924839E-002   4.6856526101924839E-002  0.39804095000000000        1.5223096336704461E-005   1.3126325881932508E-017
 chl          14   8.4212606922816322E-007   1.7972439258435960E-005   4.6856526101924839E-002
 chl2c          15  0.14196616244499974        2.0954299823745293E-002  0.25607262500000000        3.2102014078270842E-005   5.1137564422722714E-006
 chl          15   2.5794711719735409E-006   1.8169619630120486E-005  0.14196616244499974     
 chl2c          16   3.7823443882273475E-002   3.7823443882273475E-002  0.71433214999999994        3.2102014078270842E-005   5.9267870983871032E-016
 chl          16   6.8316805397967219E-007   1.8062026718298097E-005   3.7823443882273475E-002
 chl2c          17   3.7542254757581245E-002   3.7542254757581245E-002  0.62580860000000005        3.2102014078270842E-005   5.9255200786054697E-016
 chl          17   6.7808920848473286E-007   1.8062026717982360E-005   3.7542254757581245E-002
 chl2c          18   2.5694475239060960E-002   2.5694475239060960E-002  0.47925950000000000        1.7399522087622060E-005   4.0462903283209659E-016
 chl          18   4.6179239551206341E-007   1.7972439258461395E-005   2.5694475239060960E-002
 chl2c          19  0.31159997723387883        3.7570220750293731E-002  0.63367130000000005        3.2102014078270842E-005   9.8403757752381447E-006
 chl          19   5.7558700187552888E-006   1.8471984721728919E-005  0.31159997723387883     
 chl2c          20   3.7020645196759419E-002   3.7020645196759419E-002  0.50678202500000002        3.2102014078270842E-005   5.5995435404655654E-016
 chl          20   6.6866788262035064E-007   1.8062026716889366E-005   3.7020645196759419E-002
 chl2c          21  0.33385217137373124        3.7838475073783531E-002  0.71973185000000006        3.2102014078270842E-005   9.9948275226071211E-006
 chl          21   6.1732683141256919E-006   1.8491023403334463E-005  0.33385217137373124     
 chl2c          22  0.33799509520032534        3.7613353106285476E-002  0.64616892500000001        3.2102014078270842E-005   1.1375303591050344E-005
 chl          22   6.2592653959955342E-006   1.8518805405403142E-005  0.33799509520032534     
 chl2c          23   3.2286562315070731E-002   3.2286562315070731E-002  0.41564179999999995        2.1367162245245688E-005   1.4371502045461620E-018
 chl          23   5.8026828007131096E-007   1.7972439258435798E-005   3.2286562315070731E-002
 chl2c          24   3.7348402796863071E-002   3.7348402796863071E-002  0.57597492500000003        3.2102014078270842E-005   5.0614905548810031E-016
 chl          24   6.7458784914995568E-007   1.8062026716885869E-005   3.7348402796863071E-002
 chl2c          25   4.5426679235459781E-002   4.5426679235459781E-002  0.31406487500000002        1.5223096336704461E-005   1.0952607140582595E-018
 chl          25   8.1642823327172685E-007   1.7972439258435340E-005   4.5426679235459781E-002
 chl2c          26   4.7955660680174553E-002   4.7955660680174553E-002  0.49427735000000000        1.5223096336704461E-005   9.9416879898278209E-019
 chl          26   8.6188019867256514E-007   1.7972439258435174E-005   4.7955660680174553E-002
 chl2c          27   4.5333133499525620E-002   4.5333133499525620E-002  0.30964730000000001        1.5223096336704461E-005   1.3014395240096420E-017
 chl          27   8.1474698821479230E-007   1.7972439258435953E-005   4.5333133499525620E-002
 chl2c          28   3.1209236063453518E-002   3.1209236063453518E-002  0.28776342500000002        2.1367162245245688E-005   1.2934710114037142E-017
 chl          28   5.6090609945260707E-007   1.7972439258435950E-005   3.1209236063453518E-002
 chl2c          29  0.28870792556918290        3.7743217595736761E-002  0.68676297499999994        3.2102014078270842E-005   7.9951152277920150E-006
 chl          29   5.3179637657695789E-006   1.8419874533355124E-005  0.28870792556918290     
 chl2c          30   2.5380056985171612E-002   2.5380056985171612E-002  0.38930277499999999        1.7399522087622060E-005   4.1619231135570075E-016
 chl          30   4.5614153254230464E-007   1.7972439258462144E-005   2.5380056985171612E-002
 chl2c          31  0.13379200457974119        3.7576959810037038E-002  0.63559385000000002        3.2102014078270842E-005   2.7200687319655949E-006
 chl          31   2.4353571738907275E-006   1.8202561367852393E-005  0.13379200457974119     
 chl2c          32  0.16541545676848193        2.0893126428578448E-002  0.24722667500000001        3.2102014078270842E-005   8.0234442997561971E-006
 chl          32   3.0150118623414991E-006   1.8226905279845503E-005  0.16541545676848193     
 chl2c          33  0.30771680417877079        3.7458922634011876E-002  0.60343137499999999        3.2102014078270842E-005   1.0078796156638494E-005
 chl          33   5.6845195553344428E-006   1.8473217835812344E-005  0.30771680417877079     
 chl2c          34   2.5350269098008315E-002   2.5350269098008315E-002  0.38241020000000003        1.7399522087622060E-005   3.6487435422888694E-016
 chl          34   4.5560670923286869E-007   1.7972460468621383E-005   2.5350269098008315E-002
 chl2c          35   2.5740370148566064E-002   2.5740370148566064E-002  0.49574644999999995        1.7399522087622060E-005   3.7351989532887041E-016
 chl          35   4.6261723898536453E-007   1.7972439258459376E-005   2.5740370148566064E-002
 chl2c          36   3.7770393924465726E-002   3.7770393924465726E-002  0.69587337500000002        3.2102014078270842E-005   5.2258102157381430E-016
 chl          36   6.8220986421224698E-007   1.8062026717977817E-005   3.7770393924465726E-002
 chl2c          37   2.1353674699533250E-002   2.1353674699533250E-002  0.33194060000000003        3.2102014078270842E-005   3.6124105199173444E-016
 chl          37   3.8377762148224504E-007   1.7972439258458576E-005   2.1353674699533250E-002
 chl2c          38   2.1543295686358745E-002   2.1543295686358745E-002  0.38455722500000000        3.2102014078270842E-005   4.1871983949312118E-016
 chl          38   3.8718557315017566E-007   1.7972439258462310E-005   2.1543295686358745E-002
 chl2c          39   2.5670077108751441E-002   2.5670077108751441E-002  0.47091117500000002        1.7399522087622060E-005   3.9100054620153041E-016
 chl          39   4.6135390159703287E-007   1.7972439258460511E-005   2.5670077108751441E-002
 chl2c          40   3.7687445774703773E-002   3.7687445774703773E-002  0.66875547499999999        3.2102014078270842E-005   5.9316722884781652E-016
 chl          40   6.8071165252669474E-007   1.8062026718287072E-005   3.7687445774703773E-002
 chl2c          41   2.5582381488167241E-002   2.5582381488167241E-002  0.44304987499999998        1.7399522087622060E-005   3.4633259263307322E-016
 chl          41   4.5977779741256059E-007   1.7972439259621867E-005   2.5582381488167241E-002
 chl2c          42   3.7949995630725070E-002   3.7949995630725070E-002  0.76234377499999995        3.2102014078270842E-005   5.4963350722601153E-016
 chl          42   6.8545383503124988E-007   1.8062026718029259E-005   3.7949995630725070E-002
 chl2c          43  0.16519495125053735        2.1185090152268007E-002  0.29539925000000000        3.2102014078270842E-005   6.0156577622459002E-006
 chl          43   3.0070040041155801E-006   1.8202759717245286E-005  0.16519495125053735     
 chl2c          44   3.7536352708156646E-002   3.7536352708156646E-002  0.62417262500000004        3.2102014078270842E-005   5.0892974782022824E-016
 chl          44   6.7798260546918332E-007   1.8062026716886049E-005   3.7536352708156646E-002
 chl2c          45   4.6544927192009838E-002   4.6544927192009838E-002  0.37662252499999999        1.5223096336704461E-005   1.3234749552775130E-018
 chl          45   8.3652587674668539E-007   1.7972439258435194E-005   4.6544927192009838E-002
 chl2c          46  0.20640844029709463        3.7083195475449568E-002  0.51876034999999998        3.2102014078270842E-005   5.5024023810698829E-006
 chl          46   3.7800012328845930E-006   1.8313210581136298E-005  0.20640844029709463     
 chl2c          47   3.7519784612651236E-002   3.7519784612651236E-002  0.61962282499999999        3.2102014078270842E-005   5.7200914765347403E-016
 chl          47   6.7768335208567055E-007   1.8062026716890149E-005   3.7519784612651236E-002
 chl2c          48   3.7823212136301673E-002   3.7823212136301673E-002  0.71424949999999998        3.2102014078270842E-005   5.6200097031791546E-016
 chl          48   6.8316386812446343E-007   1.8062026716889590E-005   3.7823212136301673E-002
 chl2c          49   3.7152990741888416E-002   3.7152990741888416E-002  0.53276120000000005        3.2102014078270842E-005   5.4348414981548391E-016
 chl          49   6.7105831139229197E-007   1.8062026716888292E-005   3.7152990741888416E-002
 chl2c          50  0.20945787292334245        2.1533072915600981E-002  0.38132569999999999        3.2102014078270842E-005   7.4593410495288561E-006
 chl          50   3.8251225814987089E-006   1.8262013874735710E-005  0.20945787292334245     
 chl2c          51   2.0700971146093840E-002   2.0700971146093840E-002  0.22275920000000002        3.2102014078270842E-005   4.2609328700556076E-016
 chl          51   3.7204694651436233E-007   1.7972439258462787E-005   2.0700971146093840E-002
 chl2c          52   3.7581825176985564E-002   3.7581825176985564E-002  0.63698869999999996        3.2102014078270842E-005   5.8788762749704927E-016
 chl          52   6.7880393045724578E-007   1.8062026717982103E-005   3.7581825176985564E-002
 chl2c          53   3.7925801262726190E-002   3.7925801262726190E-002  0.75269794999999995        3.2102014078270842E-005   5.5967830248828292E-016
 chl          53   6.8501683873751995E-007   1.8062026797855961E-005   3.7925801262726190E-002
 chl2c          54   3.7082433371327092E-002   3.7082433371327092E-002  0.51861124999999997        3.2102014078270842E-005   5.0851384825920896E-016
 chl          54   6.6978390228005575E-007   1.8062026716886022E-005   3.7082433371327092E-002
 chl2c          55  0.31755323783020906        3.7357235588660491E-002  0.57808280000000001        3.2102014078270842E-005   1.1309720405395526E-005
 chl          55   5.8750663618554331E-006   1.8501043799769859E-005  0.31755323783020906     
 chl2c          56   3.7507394187257688E-002   3.7507394187257688E-002  0.61626080000000005        3.2102014078270842E-005   5.8855792103232086E-016
 chl          56   6.7745955593213499E-007   1.8062026717982103E-005   3.7507394187257688E-002
 chl2c          57   3.7727617852646313E-002   3.7727617852646313E-002  0.68163462500000005        3.2102014078270842E-005   5.8998538352104627E-007
 chl          57   6.8270676661335268E-007   1.8095676469153641E-005   3.7727617852646313E-002
 chl2c          58  0.34559787092103100        3.7765358178394853E-002  0.69416802499999997        3.2102014078270842E-005   1.1047086390612652E-005
 chl          58   6.4001579240121350E-006   1.8519089561968305E-005  0.34559787092103100     
 chl2c          59  0.22450013029601276        3.7173699120809672E-002  0.53705127500000005        3.2102014078270842E-005   6.1917518237854960E-006
 chl          59   4.1172558217570595E-006   1.8339658940635297E-005  0.22450013029601276     
 chl2c          60  0.30631398897072937        3.7607757740906807E-002  0.64452155000000000        3.2102014078270842E-005   9.3696473718938587E-006
 chl          60   5.6543829153023243E-006   1.8459434171785879E-005  0.30631398897072937     
 chl2c          61   3.7805373434125003E-002   3.7805373434125003E-002  0.70794139999999994        3.2102014078270842E-005   5.5413816806907755E-016
 chl          61   6.8284166500913091E-007   1.8062026716888986E-005   3.7805373434125003E-002
 chl2c          62   3.7956103087269030E-002   3.7956103087269030E-002  0.76481592499999995        3.2102014078270842E-005   5.0162783714194750E-016
 chl          62   6.8556414803112011E-007   1.8062026716885676E-005   3.7956103087269030E-002
 chl2c          63  0.33235812356757677        3.7855601011927406E-002  0.72597904999999996        3.2102014078270842E-005   9.8390800185163831E-006
 chl          63   6.1442894062885838E-006   1.8486954193672042E-005  0.33235812356757677     
 chl2c          64   2.5708982294816416E-002   2.5708982294816416E-002  0.48435739999999999        1.7399522087622060E-005   3.4238578026003567E-016
 chl          64   4.6205312269034359E-007   1.7972439258457353E-005   2.5708982294816416E-002
 chl2c          65  0.23322035697526250        3.7953597170552002E-002  0.76379975000000000        3.2102014078270842E-005   5.3888720770266032E-006
 chl          65   4.2738580925150425E-006   1.8325407558519290E-005  0.23322035697526250     
 chl2c          66   3.1840477731474713E-002   3.1840477731474713E-002  0.35213202499999996        2.1367162245245688E-005   1.0887731900180356E-018
 chl          66   5.7225105198848724E-007   1.7972439258435181E-005   3.1840477731474713E-002
 chl2c          67   3.7937587124568600E-002   3.7937587124568600E-002  0.75736760000000003        3.2102014078270842E-005   5.4201193695067784E-016
 chl          67   6.8522971221823170E-007   1.8062026716888197E-005   3.7937587124568600E-002
 chl2c          68  0.35378842464391630        3.7855407263856986E-002  0.72590779999999999        3.2102014078270842E-005   1.1077584827280749E-005
 chl          68   6.5542010681501399E-006   1.8525764585844950E-005  0.35378842464391630     
 chl2c          69  0.16265469094372650        2.1732330561541505E-002  0.45524217500000003        3.2102014078270842E-005   4.0621468842674158E-006
 chl          69   2.9544560404680188E-006   1.8163976847677694E-005  0.16265469094372650     
 chl2c          70   3.2658010878182209E-002   3.2658010878182209E-002  0.48694062500000002        2.1367162245245688E-005   1.5936448920354147E-017
 chl          70   5.8694411680947655E-007   1.7972439258436143E-005   3.2658010878182209E-002
 chl2c          71   4.3481058864416305E-002   4.3481058864416305E-002  0.23986107500000001        1.5223096336704461E-005   4.7693379977829216E-009
 chl          71   7.8147322692999297E-007   1.7972727604605991E-005   4.3481058864416305E-002
 chl2c          72   3.7549776402781669E-002   3.7549776402781669E-002  0.62790522500000001        3.2102014078270842E-005   5.8935763534305382E-016
 chl          72   6.7822506464129827E-007   1.8062026717982154E-005   3.7549776402781669E-002
 chl2c          73   3.1852614277819484E-002   3.1852614277819484E-002  0.35362212500000001        2.1367162245245688E-005   1.3667740709721931E-018
 chl          73   5.7246917533047638E-007   1.7972439258435198E-005   3.1852614277819484E-002
 chl2c          74  0.32186044851000023        3.7616827685877569E-002  0.64719590000000005        3.2102014078270842E-005   1.0277187125617195E-005
 chl          74   5.9503928046108450E-006   1.8487493049106237E-005  0.32186044851000023     
 chl2c          75   3.7826830779512356E-002   3.7826830779512356E-002  0.71554212500000003        3.2102014078270842E-005   5.2831514139322920E-016
 chl          75   6.8322922819599190E-007   1.8062026717978190E-005   3.7826830779512356E-002
 chl2c          76  0.29805349842862122        3.7257729557919804E-002  0.55513977500000000        3.2102014078270842E-005   1.0330467117766853E-005
 chl          76   5.5049484483117208E-006   1.8469665604780892E-005  0.29805349842862122     
 chl2c          77  0.26243713993842305        3.7138172437479272E-002  0.52973029999999999        3.2102014078270842E-005   8.3482327873743178E-006
 chl          77   4.8310374674895576E-006   1.8408360450137081E-005  0.26243713993842305     
 chl2c          78   4.7515248899399322E-002   4.7515248899399322E-002  0.45117492500000000        1.5223096336704461E-005   1.6440747844351260E-017
 chl          78   8.5396504995950087E-007   1.7972441894759737E-005   4.7515248899399322E-002
 prod   4.9500772802890697E-009   22.949554608009816        10.000000000000000     
 chl2c           1  0.32787892870255431        3.7477407714772232E-002  0.60826437499999997        2.5900252555123769E-005   9.2113741861737033E-006
 chl           1   4.5659723604638078E-006   1.3925787724547476E-005  0.32787892870255431     
 chl2c           2   3.2640259920490348E-002   3.2640259920490348E-002  0.48302390000000001        1.7351972326539979E-005   8.3416309820064925E-019
 chl           2   4.4535957773286679E-007   1.3644486251571988E-005   3.2640259920490348E-002
 chl2c           3   3.7922212503796585E-002   3.7922212503796585E-002  0.75128689999999998        2.5900252555123769E-005   6.1866881537322900E-016
 chl           3   5.1765801191487253E-007   1.3650522417779480E-005   3.7922212503796585E-002
 chl2c           4  0.41272582027520049        3.7976509103863923E-002  0.77318742499999993        2.5900252555123769E-005   1.1464666158159968E-005
 chl           4   5.7762899243851039E-006   1.3995465368591538E-005  0.41272582027520049     
 chl2c           5   2.5710500362372445E-002   2.5710500362372445E-002  0.48489679999999996        1.4153138343815746E-005   4.3546599199681308E-016
 chl           5   3.5080686179941476E-007   1.3644497650960688E-005   2.5710500362372445E-002
 chl2c           6   3.1261039902252048E-002   3.1261039902252048E-002  0.29222855000000003        1.7351972326539979E-005   1.4238291324632667E-017
 chl           6   4.2654082819165306E-007   1.3644486220719901E-005   3.1261039902252048E-002
 chl2c           7   4.3064391842467263E-002   4.3064391842467263E-002  0.22770740000000000        1.2451187799108502E-005   1.4092273997680694E-008
 chl           7   5.8761936932558788E-007   1.3645133349964469E-005   4.3064391842467263E-002
 chl2c           8   4.7969800906495587E-002   4.7969800906495587E-002  0.49578364999999996        1.2451187799108502E-005   1.5620602177912898E-008
 chl           8   6.5455769601697794E-007   1.3645203516538763E-005   4.7969800906495587E-002
 chl2c           9  0.23125109706696997        2.4803669054600401E-002  0.28700202499999999        1.4153138343815746E-005   8.4244085183406775E-006
 chl           9   3.1866216252507820E-006   1.3779920033538008E-005  0.23125109706696997     
 chl2c          10  0.11174871163937650        2.5387016219684602E-002  0.39094662499999999        1.4153138343815746E-005   1.1073134651609344E-006
 chl          10   1.5294064348042575E-006   1.3686121409075341E-005  0.11174871163937650     
 chl2c          11   2.1820572217820047E-002   2.1820572217820047E-002  0.49737575000000001        2.5900252555123769E-005   4.5787613865725576E-016
 chl          11   2.9773049695471387E-007   1.3644486220740284E-005   2.1820572217820047E-002
 chl2c          12   4.5290941298723353E-002   4.5290941298723353E-002  0.30768942500000002        1.2451187799108502E-005   8.5638215297500921E-019
 chl          12   6.1797162447376674E-007   1.3644486220717739E-005   4.5290941298723353E-002
 chl2c          13   3.7935816987997487E-002   3.7935816987997487E-002  0.75666275000000005        2.5900252555123769E-005   6.7487567916627374E-016
 chl          13   5.1784372020766435E-007   1.3650522417152764E-005   3.7935816987997487E-002
 chl2c          14   4.6856526101924839E-002   4.6856526101924839E-002  0.39804095000000000        1.2451187799108502E-005   1.0900723965345635E-017
 chl          14   6.3933322474843777E-007   1.3644486220718234E-005   4.6856526101924839E-002
 chl2c          15  0.10939738772041624        2.0954299823745293E-002  0.25607262500000000        2.5900252555123769E-005   2.4733598633105685E-006
 chl          15   1.5018110439199075E-006   1.3728033870041239E-005  0.10939738772041624     
 chl2c          16   3.7823443882273475E-002   3.7823443882273475E-002  0.71433214999999994        2.5900252555123769E-005   6.1866881537322900E-016
 chl          16   5.1630984329277351E-007   1.3650524391692156E-005   3.7823443882273475E-002
 chl2c          17   3.7542254757581245E-002   3.7542254757581245E-002  0.62580860000000005        2.5900252555123769E-005   6.1866881537322900E-016
 chl          17   5.1247139018235110E-007   1.3650522417779480E-005   3.7542254757581245E-002
 chl2c          18   2.5694475239060960E-002   2.5694475239060960E-002  0.47925950000000000        1.4153138343815746E-005   4.6175943329111501E-016
 chl          18   3.5058791334852459E-007   1.3644486220740475E-005   2.5694475239060960E-002
 chl2c          19  0.36928458326828134        3.7570220750293731E-002  0.63367130000000005        2.5900252555123769E-005   1.1461978424234274E-005
 chl          19   5.1598795031622977E-006   1.3972637193504772E-005  0.36928458326828134     
 chl2c          20   3.7020645196759419E-002   3.7020645196759419E-002  0.50678202500000002        2.5900252555123769E-005   6.9567517578196476E-016
 chl          20   5.0535114715586083E-007   1.3650522417153778E-005   3.7020645196759419E-002
 chl2c          21  0.41190200695408224        3.7838475073783531E-002  0.71973185000000006        2.5900252555123769E-005   1.2471764802742338E-005
 chl          21   5.7693114525810091E-006   1.4006514547583053E-005  0.41190200695408224     
 chl2c          22  0.37108553049248483        3.7613353106285476E-002  0.64616892500000001        2.5900252555123769E-005   1.1288330530282865E-005
 chl          22   5.1847349738733615E-006   1.3971805817899877E-005  0.37108553049248483     
 chl2c          23   3.2286562315070731E-002   3.2286562315070731E-002  0.41564179999999995        1.7351972326539979E-005   1.1900172932437826E-018
 chl          23   4.4053355474259025E-007   1.3644486224442602E-005   3.2286562315070731E-002
 chl2c          24   3.7348402796863071E-002   3.7348402796863071E-002  0.57597492500000003        2.5900252555123769E-005   6.4977811073406320E-016
 chl          24   5.0982520962338368E-007   1.3650522417151515E-005   3.7348402796863071E-002
 chl2c          25   4.5426679235459781E-002   4.5426679235459781E-002  0.31406487500000002        1.2451187799108502E-005   9.0682226854658921E-019
 chl          25   6.1982369892662066E-007   1.3644486221717702E-005   4.5426679235459781E-002
 chl2c          26   4.7955660680174553E-002   4.7955660680174553E-002  0.49427735000000000        1.2451187799108502E-005   8.2309708382114358E-019
 chl          26   6.5433035135605709E-007   1.3644486220717738E-005   4.7955660680174553E-002
 chl2c          27   4.5333133499525620E-002   4.5333133499525620E-002  0.30964730000000001        1.2451187799108502E-005   1.0807449091726990E-017
 chl          27   6.1854731537625721E-007   1.3644486220718229E-005   4.5333133499525620E-002
 chl2c          28   3.1209236063453518E-002   3.1209236063453518E-002  0.28776342500000002        1.7351972326539979E-005   1.0741048671928606E-017
 chl          28   4.2583399142693385E-007   1.3644486220718225E-005   3.1209236063453518E-002
 chl2c          29  0.29133937084958600        3.7743217595736761E-002  0.68676297499999994        2.5900252555123769E-005   6.5526574379328260E-006
 chl          29   4.0415952223643201E-006   1.3872464990153812E-005  0.29133937084958600     
 chl2c          30   2.5380056985171612E-002   2.5380056985171612E-002  0.38930277499999999        1.4153138343815746E-005   4.6973942891990695E-016
 chl          30   3.4629783781579211E-007   1.3644486220740868E-005   2.5380056985171612E-002
 chl2c          31   3.7576959810037038E-002   3.7576959810037038E-002  0.63559385000000002        2.5900252555123769E-005   2.8161886852502525E-007
 chl          31   5.1345234758817404E-007   1.3664020457850551E-005   3.7576959810037038E-002
 chl2c          32  0.17548260716016154        2.0893126428578448E-002  0.24722667500000001        2.5900252555123769E-005   7.8310033932589236E-006
 chl          32   2.4245025995418991E-006   1.3816198874507692E-005  0.17548260716016154     
 chl2c          33  0.36814743041030334        3.7458922634011876E-002  0.60343137499999999        2.5900252555123769E-005   1.2227322625197208E-005
 chl          33   5.1465253927041016E-006   1.3979522787835994E-005  0.36814743041030334     
 chl2c          34   2.5350269098008315E-002   2.5350269098008315E-002  0.38241020000000003        1.4153138343815746E-005   4.3293994331803249E-016
 chl          34   3.4589139748580327E-007   1.3644486224131594E-005   2.5350269098008315E-002
 chl2c          35   2.5740370148566064E-002   2.5740370148566064E-002  0.49574644999999995        1.4153138343815746E-005   4.3939845122514953E-016
 chl          35   3.5121412580884067E-007   1.3644486220739371E-005   2.5740370148566064E-002
 chl2c          36   3.7770393924465726E-002   3.7770393924465726E-002  0.69587337500000002        2.5900252555123769E-005   6.1866881537322900E-016
 chl          36   5.1558560899428124E-007   1.3650522417779478E-005   3.7770393924465726E-002
 chl2c          37   2.1353674699533250E-002   2.1353674699533250E-002  0.33194060000000003        2.5900252555123769E-005   4.3019256475558134E-016
 chl          37   2.9135992019992266E-007   1.3644486220738917E-005   2.1353674699533250E-002
 chl2c          38   2.1543295686358745E-002   2.1543295686358745E-002  0.38455722500000000        2.5900252555123769E-005   4.7146096920255135E-016
 chl          38   2.9394720114186989E-007   1.3644486220740953E-005   2.1543295686358745E-002
 chl2c          39   2.5670077108751441E-002   2.5670077108751441E-002  0.47091117500000002        1.4153138343815746E-005   4.5212793456380083E-016
 chl          39   3.5025501339569237E-007   1.3644486220740001E-005   2.5670077108751441E-002
 chl2c          40   3.7687445774703773E-002   3.7687445774703773E-002  0.66875547499999999        2.5900252555123769E-005   6.1866881537322900E-016
 chl          40   5.1445339520341024E-007   1.3650524322577388E-005   3.7687445774703773E-002
 chl2c          41   2.5582381488167241E-002   2.5582381488167241E-002  0.44304987499999998        1.4153138343815746E-005   4.1870770251968950E-016
 chl          41   3.4905863792159081E-007   1.3644493499678395E-005   2.5582381488167241E-002
 chl2c          42   3.7949995630725070E-002   3.7949995630725070E-002  0.76234377499999995        2.5900252555123769E-005   6.8710142785285837E-016
 chl          42   5.1803753670313471E-007   1.3650529547985541E-005   3.7949995630725070E-002
 chl2c          43  0.20037348037525690        2.1185090152268007E-002  0.29539925000000000        2.5900252555123769E-005   8.0664461263778328E-006
 chl          43   2.7721546371354168E-006   1.3834937796876916E-005  0.20037348037525690     
 chl2c          44   3.7536352708156646E-002   3.7536352708156646E-002  0.62417262500000004        2.5900252555123769E-005   6.5222472214879332E-016
 chl          44   5.1239082410080277E-007   1.3650522417151635E-005   3.7536352708156646E-002
 chl2c          45   4.6544927192009838E-002   4.6544927192009838E-002  0.37662252499999999        1.2451187799108502E-005   1.0958507158909410E-018
 chl          45   6.3508161771568914E-007   1.3644486220717749E-005   4.6544927192009838E-002
 chl2c          46  0.16011735717863687        3.7083195475449568E-002  0.51876034999999998        2.5900252555123769E-005   2.9992788229983099E-006
 chl          46   2.2034772491676589E-006   1.3761638887839765E-005  0.16011735717863687     
 chl2c          47   3.7519784612651236E-002   3.7519784612651236E-002  0.61962282499999999        2.5900252555123769E-005   7.0555654367500526E-016
 chl          47   5.1216466094179536E-007   1.3650522417154266E-005   3.7519784612651236E-002
 chl2c          48   3.7823212136301673E-002   3.7823212136301673E-002  0.71424949999999998        2.5900252555123769E-005   6.9736280497973312E-016
 chl          48   5.1630660517744521E-007   1.3650522417737979E-005   3.7823212136301673E-002
 chl2c          49   3.7152990741888416E-002   3.7152990741888416E-002  0.53276120000000005        2.5900252555123769E-005   6.8194227957713267E-016
 chl          49   5.0715773298642945E-007   1.3650522417153102E-005   3.7152990741888416E-002
 chl2c          50  0.23790674965527919        2.1533072915600981E-002  0.38132569999999999        2.5900252555123769E-005   8.1916295384273000E-006
 chl          50   3.2973242449169471E-006   1.3859733907065209E-005  0.23790674965527919     
 chl2c          51   2.0700971146093840E-002   2.0700971146093840E-002  0.22275920000000002        2.5900252555123769E-005   4.7643768033170914E-016
 chl          51   2.8245411555883855E-007   1.3644486220741199E-005   2.0700971146093840E-002
 chl2c          52   3.7581825176985564E-002   3.7581825176985564E-002  0.63698869999999996        2.5900252555123769E-005   6.1866881537322900E-016
 chl          52   5.1301154708947618E-007   1.3650522418044647E-005   3.7581825176985564E-002
 chl2c          53   3.7925801262726190E-002   3.7925801262726190E-002  0.75269794999999995        2.5900252555123769E-005   9.9302832218489663E-009
 chl          53   5.1772593985245110E-007   1.3651021800857156E-005   3.7925801262726190E-002
 chl2c          54   3.7082433371327092E-002   3.7082433371327092E-002  0.51861124999999997        2.5900252555123769E-005   6.5185932399281615E-016
 chl          54   5.0619458801783171E-007   1.3650522417151617E-005   3.7082433371327092E-002
 chl2c          55  0.36556853208707846        3.7357235588660491E-002  0.57808280000000001        2.5900252555123769E-005   1.2877891527059227E-005
 chl          55   5.1120396541906624E-006   1.3983806606671973E-005  0.36556853208707846     
 chl2c          56   3.7507394187257688E-002   3.7507394187257688E-002  0.61626080000000005        2.5900252555123769E-005   6.1866881537322900E-016
 chl          56   5.1199552518565279E-007   1.3650522417779480E-005   3.7507394187257688E-002
 chl2c          57   3.7727617852646313E-002   3.7727617852646313E-002  0.68163462500000005        2.5900252555123769E-005   7.1671856536316109E-016
 chl          57   5.1500189630242416E-007   1.3650527799393002E-005   3.7727617852646313E-002
 chl2c          58  0.38867988298479472        3.7765358178394853E-002  0.69416802499999997        2.5900252555123769E-005   1.1437637146665713E-005
 chl          58   5.4348438815659801E-006   1.3982827821779995E-005  0.38867988298479472     
 chl2c          59  0.31822754549022425        3.7173699120809672E-002  0.53705127500000005        2.5900252555123769E-005   1.0114236598124298E-005
 chl          59   4.4330691355892058E-006   1.3930500984005444E-005  0.31822754549022425     
 chl2c          60  0.37832076269764686        3.7607757740906807E-002  0.64452155000000000        2.5900252555123769E-005   1.1862119288249062E-005
 chl          60   5.2895855472389051E-006   1.3981747947220994E-005  0.37832076269764686     
 chl2c          61   3.7805373434125003E-002   3.7805373434125003E-002  0.70794139999999994        2.5900252555123769E-005   6.9085658726932501E-016
 chl          61   5.1606309755138434E-007   1.3650522417153541E-005   3.7805373434125003E-002
 chl2c          62   3.7956103087269030E-002   3.7956103087269030E-002  0.76481592499999995        2.5900252555123769E-005   6.4578208470155532E-016
 chl          62   5.1812063608517971E-007   1.3650522417802267E-005   3.7956103087269030E-002
 chl2c          63  0.39888014634904762        3.7855601011927406E-002  0.72597904999999996        2.5900252555123769E-005   1.1464666436283700E-005
 chl          63   5.5797104166782962E-006   1.3988438551653723E-005  0.39888014634904762     
 chl2c          64   2.5708982294816416E-002   2.5708982294816416E-002  0.48435739999999999        1.4153138343815746E-005   4.1560890654894477E-016
 chl          64   3.5078585467082492E-007   1.3644486220738198E-005   2.5708982294816416E-002
 chl2c          65  0.35442089452239267        3.7953597170552002E-002  0.76379975000000000        2.5900252555123769E-005   8.5634235523705455E-006
 chl          65   4.9369460010182811E-006   1.3929613285557463E-005  0.35442089452239267     
 chl2c          66   3.1840477731474713E-002   3.1840477731474713E-002  0.35213202499999996        1.7351972326539979E-005   9.0144908691103715E-019
 chl          66   4.3444695966817681E-007   1.3644486220717741E-005   3.1840477731474713E-002
 chl2c          67   3.7937587124568600E-002   3.7937587124568600E-002  0.75736760000000003        2.5900252555123769E-005   6.8070144771246857E-016
 chl          67   5.1786788349662030E-007   1.3650522417153041E-005   3.7937587124568600E-002
 chl2c          68  0.39768662491382284        3.7855407263856986E-002  0.72590779999999999        2.5900252555123769E-005   1.1390160799061052E-005
 chl          68   5.5624302513250786E-006   1.3986968388817290E-005  0.39768662491382284     
 chl2c          69  0.10169651570868030        2.1732330561541505E-002  0.45524217500000003        2.5900252555123769E-005   1.6958094727598698E-006
 chl          69   1.3943158496498656E-006   1.3710556747529295E-005  0.10169651570868030     
 chl2c          70   3.2658010878182209E-002   3.2658010878182209E-002  0.48694062500000002        1.7351972326539979E-005   1.3244295148918232E-017
 chl          70   4.4560177942342707E-007   1.3644486220718349E-005   3.2658010878182209E-002
 chl2c          71   4.3481058864416305E-002   4.3481058864416305E-002  0.23986107500000001        1.2451187799108502E-005   1.0194133677272428E-008
 chl          71   5.9329706090008307E-007   1.3644954294929118E-005   4.3481058864416305E-002
 chl2c          72   3.7549776402781669E-002   3.7549776402781669E-002  0.62790522500000001        2.5900252555123769E-005   6.1866881537322900E-016
 chl          72   5.1257406456877840E-007   1.3650522417779488E-005   3.7549776402781669E-002
 chl2c          73   3.1852614277819484E-002   3.1852614277819484E-002  0.35362212500000001        1.7351972326539979E-005   1.1317181522303011E-018
 chl          73   4.3461255660754545E-007   1.3644486220717751E-005   3.1852614277819484E-002
 chl2c          74  0.38925669241209016        3.7616827685877569E-002  0.64719590000000005        2.5900252555123769E-005   1.2648193100046842E-005
 chl          74   5.4479279017068459E-006   1.3995720582086608E-005  0.38925669241209016     
 chl2c          75   3.7826830779512356E-002   3.7826830779512356E-002  0.71554212500000003        2.5900252555123769E-005   6.1866881537322900E-016
 chl          75   5.1635600154928424E-007   1.3650522417779478E-005   3.7826830779512356E-002
 chl2c          76  0.32240415313463372        3.7257729557919804E-002  0.55513977500000000        2.5900252555123769E-005   9.9589629273020720E-006
 chl          76   4.4914935500094679E-006   1.3931252145296813E-005  0.32240415313463372     
 chl2c          77  0.32993938583532401        3.7138172437479272E-002  0.52973029999999999        2.5900252555123769E-005   1.1328887019452591E-005
 chl          77   4.6022439071821365E-006   1.3948755755637982E-005  0.32993938583532401     
 chl2c          78   4.7515248899399322E-002   4.7515248899399322E-002  0.45117492500000000        1.2451187799108502E-005   1.3665237874626170E-017
 chl          78   6.4832115890189378E-007   1.3644486221140046E-005   4.7515248899399322E-002
 prod   4.0970181575631880E-009   18.462863468853008        10.000000000000000     
 chl2c           1  0.37753568390453146        3.7477407714772232E-002  0.60826437499999997        2.0929858083894920E-005   1.0415618718446397E-005
 chl           1   3.5979348965002558E-006   9.5300525218963833E-006  0.37753568390453146     
 chl2c           2   3.2640259920490348E-002   3.2640259920490348E-002  0.48302390000000001        1.4103182364935160E-005   6.6105706010046978E-019
 chl           2   3.0471960487773846E-007   9.3356978657650567E-006   3.2640259920490348E-002
 chl2c           3   3.7922212503796585E-002   3.7922212503796585E-002  0.75128689999999998        2.0929858083894920E-005   6.3962617616332933E-016
 chl           3   3.5425821066012800E-007   9.3417073337865346E-006   3.7922212503796585E-002
 chl2c           4  0.44939187779198136        3.7976509103863923E-002  0.77318742499999993        2.0929858083894920E-005   1.1229887789464739E-005
 chl           4   4.2953665176998491E-006   9.5581756813329140E-006  0.44939187779198136     
 chl2c           5   2.5710500362372445E-002   2.5710500362372445E-002  0.48489679999999996        1.1531896881036520E-005   4.6655416218747451E-016
 chl           5   2.4002546340803479E-007   9.3356978676040974E-006   2.5710500362372445E-002
 chl2c           6   3.1261039902252048E-002   3.1261039902252048E-002  0.29222855000000003        1.4103182364935160E-005   1.1326931248579332E-017
 chl           6   2.9184362379059468E-007   9.3356978751551454E-006   3.1261039902252048E-002
 chl2c           7   4.3064391842467263E-002   4.3064391842467263E-002  0.22770740000000000        1.0189373199118397E-005   8.5888651289457132E-009
 chl           7   4.0204776101395260E-007   9.3359674620431910E-006   4.3064391842467263E-002
 chl2c           8   4.7969800906495587E-002   4.7969800906495587E-002  0.49578364999999996        1.0189373199118397E-005   1.2038762795932018E-008
 chl           8   4.4784969515074760E-007   9.3360757536540940E-006   4.7969800906495587E-002
 chl2c           9  0.24004564721998647        2.4803669054600401E-002  0.28700202499999999        1.1531896881036520E-005   8.4597000111292079E-006
 chl           9   2.2603791336370653E-006   9.4164554109392886E-006  0.24004564721998647     
 chl2c          10   2.5387016219684602E-002   2.5387016219684602E-002  0.39094662499999999        1.1531896881036520E-005   4.8143160463159951E-016
 chl          10   2.3700568220535494E-007   9.3357045252756140E-006   2.5387016219684602E-002
 chl2c          11   2.1820572217820047E-002   2.1820572217820047E-002  0.49737575000000001        2.0929858083894920E-005   4.8387725996759013E-016
 chl          11   2.0371026948392309E-007   9.3356978657764307E-006   2.1820572217820047E-002
 chl2c          12   4.5290941298723353E-002   4.5290941298723353E-002  0.30768942500000002        1.0189373199118397E-005   6.7867088938446180E-019
 chl          12   4.2282254402075854E-007   9.3356978657601219E-006   4.5290941298723353E-002
 chl2c          13   3.7935816987997487E-002   3.7935816987997487E-002  0.75666275000000005        2.0929858083894920E-005   7.4599562843377760E-016
 chl          13   3.5438529976127227E-007   9.3417073335575256E-006   3.7935816987997487E-002
 chl2c          14   4.6856526101924839E-002   4.6856526101924839E-002  0.39804095000000000        1.0189373199118397E-005   8.6625011570831228E-018
 chl          14   4.3743837072668576E-007   9.3356978657603912E-006   4.6856526101924839E-002
 chl2c          15   2.0954299823745293E-002   2.0954299823745293E-002  0.25607262500000000        2.0929858083894920E-005   4.9090598096255255E-016
 chl          15   1.9562329216298315E-007   9.3357112291246276E-006   2.0954299823745293E-002
 chl2c          16   3.8862637221034779E-002   3.7823443882273475E-002  0.71433214999999994        2.0929858083894920E-005   4.3009362105232960E-007
 chl          16   3.6352298312522253E-007   9.3540482355238148E-006   3.8862637221034779E-002
 chl2c          17   3.7542254757581245E-002   3.7542254757581245E-002  0.62580860000000005        2.0929858083894920E-005   6.3962617616332933E-016
 chl          17   3.5070875659577913E-007   9.3417073337865346E-006   3.7542254757581245E-002
 chl2c          18   2.5694475239060960E-002   2.5694475239060960E-002  0.47925950000000000        1.1531896881036520E-005   4.8683184430229604E-016
 chl          18   2.3987585765154929E-007   9.3356978657765306E-006   2.5694475239060960E-002
 chl2c          19  0.39866732533773896        3.7570220750293731E-002  0.63367130000000005        2.0929858083894920E-005   1.1249565803762988E-005
 chl          19   3.8041287137898159E-006   9.5421131154078717E-006  0.39866732533773896     
 chl2c          20   3.7020645196759419E-002   3.7020645196759419E-002  0.50678202500000002        2.0929858083894920E-005   7.6320899512892779E-016
 chl          20   3.4583603272532081E-007   9.3417073334959972E-006   3.7020645196759419E-002
 chl2c          21  0.45834784331874345        3.7838475073783531E-002  0.71973185000000006        2.0929858083894920E-005   1.3207578208297037E-005
 chl          21   4.3880910504065495E-006   9.5737137511847980E-006  0.45834784331874345     
 chl2c          22  0.39320509229253064        3.7613353106285476E-002  0.64616892500000001        2.0929858083894920E-005   1.0510976310857579E-005
 chl          22   3.7495056941921951E-006   9.5357505985774359E-006  0.39320509229253064     
 chl2c          23   3.2286562315070731E-002   3.2286562315070731E-002  0.41564179999999995        1.4103182364935160E-005   7.4109077895703757E-010
 chl          23   3.0141834277884592E-007   9.3357211535075627E-006   3.2286562315070731E-002
 chl2c          24   3.7348402796863071E-002   3.7348402796863071E-002  0.57597492500000003        2.0929858083894920E-005   7.2487590266260642E-016
 chl          24   3.4889784830176982E-007   9.3417073334947029E-006   3.7348402796863071E-002
 chl2c          25   4.5426679235459781E-002   4.5426679235459781E-002  0.31406487500000002        1.0189373199118397E-005   1.9851314598020941E-010
 chl          25   4.2409003638396062E-007   9.3357041175248087E-006   4.5426679235459781E-002
 chl2c          26   4.7955660680174553E-002   4.7955660680174553E-002  0.49427735000000000        1.0189373199118397E-005   6.5228474986419538E-019
 chl          26   4.4769955906302217E-007   9.3356978657601219E-006   4.7955660680174553E-002
 chl2c          27   4.5333133499525620E-002   4.5333133499525620E-002  0.30964730000000001        1.0189373199118397E-005   8.5881204018895200E-018
 chl          27   4.2321643765975216E-007   9.3356978657603895E-006   4.5333133499525620E-002
 chl2c          28   3.1209236063453518E-002   3.1209236063453518E-002  0.28776342500000002        1.4103182364935160E-005   8.5351730223670647E-018
 chl          28   2.9135999850959511E-007   9.3356978657603879E-006   3.1209236063453518E-002
 chl2c          29  0.21492677044855013        3.7743217595736761E-002  0.68676297499999994        2.0929858083894920E-005   3.2737266389894124E-006
 chl          29   2.0255669404370208E-006   9.4244515758073396E-006  0.21492677044855013     
 chl2c          30   2.5380056985171612E-002   2.5380056985171612E-002  0.38930277499999999        1.1531896881036520E-005   4.9286081051102798E-016
 chl          30   2.3694054382975852E-007   9.3356978657767339E-006   2.5380056985171612E-002
 chl2c          31   3.7576959810037038E-002   3.7576959810037038E-002  0.63559385000000002        2.0929858083894920E-005   7.6896563077773052E-016
 chl          31   3.5103304215640872E-007   9.3417094924918762E-006   3.7576959810037038E-002
 chl2c          32  0.17154413221221737        2.0893126428578448E-002  0.24722667500000001        2.0929858083894920E-005   5.8642404344236186E-006
 chl          32   1.6171748085806231E-006   9.4271648218198156E-006  0.17154413221221737     
 chl2c          33  0.40509315381717825        3.7458922634011876E-002  0.60343137499999999        2.0929858083894920E-005   1.2897711695178712E-005
 chl          33   3.8699683298806822E-006   9.5532800132861039E-006  0.40509315381717825     
 chl2c          34   2.5350269098008315E-002   2.5350269098008315E-002  0.38241020000000003        1.1531896881036520E-005   4.6457175840077675E-016
 chl          34   2.3666245311513172E-007   9.3356978657763239E-006   2.5350269098008315E-002
 chl2c          35   2.5740370148566064E-002   2.5740370148566064E-002  0.49574644999999995        1.1531896881036520E-005   4.6962813410263132E-016
 chl          35   2.4030431866025122E-007   9.3356978657759512E-006   2.5740370148566064E-002
 chl2c          36   3.7770393924465726E-002   3.7770393924465726E-002  0.69587337500000002        2.0929858083894920E-005   6.3962617616332933E-016
 chl          36   3.5283996592418786E-007   9.3417073337865346E-006   3.7770393924465726E-002
 chl2c          37   2.1353674699533250E-002   2.1353674699533250E-002  0.33194060000000003        2.0929858083894920E-005   4.6240867618568505E-016
 chl          37   1.9935145531890129E-007   9.3356978657757073E-006   2.1353674699533250E-002
 chl2c          38   2.1543295686358745E-002   2.1543295686358745E-002  0.38455722500000000        2.0929858083894920E-005   4.9415403203382010E-016
 chl          38   2.0112169956093739E-007   9.3356978657767779E-006   2.1543295686358745E-002
 chl2c          39   2.5670077108751441E-002   2.5670077108751441E-002  0.47091117500000002        1.1531896881036520E-005   4.7947850041871467E-016
 chl          39   2.3964808407848347E-007   9.3356978657762833E-006   2.5670077108751441E-002
 chl2c          40   3.7687445774703773E-002   3.7687445774703773E-002  0.66875547499999999        2.0929858083894920E-005   4.1059857739646855E-007
 chl          40   3.5251390069716729E-007   9.3536161300105536E-006   3.7687445774703773E-002
 chl2c          41  0.19389269947998652        2.5582381488167241E-002  0.44304987499999998        1.1531896881036520E-005   1.9879773460864067E-006
 chl          41   1.8189473165073206E-006   9.3812057977720365E-006  0.19389269947998652     
 chl2c          42  0.12923334360571437        3.7949995630725070E-002  0.76234377499999995        2.0929858083894920E-005   1.6284793577202056E-006
 chl          42   1.2130215496653613E-006   9.3862892951701402E-006  0.12923334360571437     
 chl2c          43  0.21726912525899997        2.1185090152268007E-002  0.29539925000000000        2.0929858083894920E-005   8.5965694166851158E-006
 chl          43   2.0545232704009933E-006   9.4561216093260288E-006  0.21726912525899997     
 chl2c          44   3.7536352708156646E-002   3.7536352708156646E-002  0.62417262500000004        2.0929858083894920E-005   7.2695182036605293E-016
 chl          44   3.5065362136643332E-007   9.3417073334947724E-006   3.7536352708156646E-002
 chl2c          45   4.6544927192009838E-002   4.6544927192009838E-002  0.37662252499999999        1.0189373199118397E-005   8.6852480999443059E-019
 chl          45   4.3452937744840683E-007   9.3356978657601287E-006   4.6544927192009838E-002
 chl2c          46   3.7083195475449568E-002   3.7083195475449568E-002  0.51876034999999998        2.0929858083894920E-005   1.0543148822731796E-007
 chl          46   3.4655232403125891E-007   9.3452659510070862E-006   3.7083195475449568E-002
 chl2c          47   3.7519784612651236E-002   3.7519784612651236E-002  0.61962282499999999        2.0929858083894920E-005   7.7129664274372049E-016
 chl          47   3.5049884706720457E-007   9.3417073334962699E-006   3.7519784612651236E-002
 chl2c          48   3.7823212136301673E-002   3.7823212136301673E-002  0.71424949999999998        2.0929858083894920E-005   7.6459434833824258E-016
 chl          48   3.5333351631633282E-007   9.3417109853875440E-006   3.7823212136301673E-002
 chl2c          49   3.7152990741888416E-002   3.7152990741888416E-002  0.53276120000000005        2.0929858083894920E-005   7.5187292214806577E-016
 chl          49   3.4707236607479370E-007   9.3417073334956143E-006   3.7152990741888416E-002
 chl2c          50  0.25202672635590212        2.1533072915600981E-002  0.38132569999999999        2.0929858083894920E-005   7.7782855911054070E-006
 chl          50   2.3857057814623847E-006   9.4660824903680490E-006  0.25202672635590212     
 chl2c          51   2.0700971146093840E-002   2.0700971146093840E-002  0.22275920000000002        2.0929858083894920E-005   4.9787793995470577E-016
 chl          51   1.9325801214809753E-007   9.3356978657769033E-006   2.0700971146093840E-002
 chl2c          52   3.7581825176985564E-002   3.7581825176985564E-002  0.63698869999999996        2.0929858083894920E-005   6.3962617616332933E-016
 chl          52   3.5107847417692942E-007   9.3417089916091564E-006   3.7581825176985564E-002
 chl2c          53  0.16927631064485033        3.7925801262726190E-002  0.75269794999999995        2.0929858083894920E-005   2.2854444666664598E-006
 chl          53   1.5916337517802769E-006   9.4025782208805312E-006  0.16927631064485033     
 chl2c          54   3.7082433371327092E-002   3.7082433371327092E-002  0.51861124999999997        2.0929858083894920E-005   7.2664202126225973E-016
 chl          54   3.4641323976875719E-007   9.3417073334947622E-006   3.7082433371327092E-002
 chl2c          55  0.38849694308554927        3.7357235588660491E-002  0.57808280000000001        2.0929858083894920E-005   1.2396754642228116E-005
 chl          55   3.7081046348158789E-006   9.5447459775747395E-006  0.38849694308554927     
 chl2c          56   3.7507394187257688E-002   3.7507394187257688E-002  0.61626080000000005        2.0929858083894920E-005   6.3962617616332933E-016
 chl          56   3.5038309935032760E-007   9.3417073337865346E-006   3.7507394187257688E-002
 chl2c          57   3.7727617852646313E-002   3.7727617852646313E-002  0.68163462500000005        2.0929858083894920E-005   7.8036381209583621E-016
 chl          57   3.5244036440190141E-007   9.3417073343574568E-006   3.7727617852646313E-002
 chl2c          58  0.42179135692594594        3.7765358178394853E-002  0.69416802499999997        2.0929858083894920E-005   1.1249382047293964E-005
 chl          58   4.0279777207751756E-006   9.5496924122187965E-006  0.42179135692594594     
 chl2c          59  0.36976965836388703        3.7173699120809672E-002  0.53705127500000005        2.0929858083894920E-005   1.2423246285434832E-005
 chl          59   3.5268262210848375E-006   9.5379005316172245E-006  0.36976965836388703     
 chl2c          60  0.42068046682257371        3.7607757740906807E-002  0.64452155000000000        2.0929858083894920E-005   1.2676118172650522E-005
 chl          60   4.0207489795568083E-006   9.5577268179950953E-006  0.42068046682257371     
 chl2c          61   3.7805373434125003E-002   3.7805373434125003E-002  0.70794139999999994        2.0929858083894920E-005   7.5924419474805540E-016
 chl          61   3.5316673425511525E-007   9.3417073334958633E-006   3.7805373434125003E-002
 chl2c          62   3.7956103087269030E-002   3.7956103087269030E-002  0.76481592499999995        2.0929858083894920E-005   7.2147730425109907E-016
 chl          62   3.5457496103267776E-007   9.3417114032343010E-006   3.7956103087269030E-002
 chl2c          63  0.43302596199671839        3.7855601011927406E-002  0.72597904999999996        2.0929858083894920E-005   1.1229908845592674E-005
 chl          63   4.1367513343315996E-006   9.5531254413862364E-006  0.43302596199671839     
 chl2c          64   2.5708982294816416E-002   2.5708982294816416E-002  0.48435739999999999        1.1531896881036520E-005   4.5080309709854512E-016
 chl          64   2.4001129114097298E-007   9.3356978657753160E-006   2.5708982294816416E-002
 chl2c          65  0.42578586916089378        3.7953597170552002E-002  0.76379975000000000        2.0929858083894920E-005   1.0068679308078061E-005
 chl          65   4.0630912423106725E-006   9.5425694852623965E-006  0.42578586916089378     
 chl2c          66   3.1840477731474713E-002   3.1840477731474713E-002  0.35213202499999996        1.4103182364935160E-005   7.1439794576116159E-019
 chl          66   2.9725308000251123E-007   9.3356978657601236E-006   3.1840477731474713E-002
 chl2c          67   3.7937587124568600E-002   3.7937587124568600E-002  0.75736760000000003        2.0929858083894920E-005   7.5084309995772940E-016
 chl          67   3.5440183585670996E-007   9.3417073334955787E-006   3.7937587124568600E-002
 chl2c          68  0.43325895797641978        3.7855407263856986E-002  0.72590779999999999        2.0929858083894920E-005   1.1246528594358809E-005
 chl          68   4.1390573218117832E-006   9.5533104292723060E-006  0.43325895797641978     
 chl2c          69   2.1732330561541505E-002   2.1732330561541505E-002  0.45524217500000003        2.0929858083894920E-005   4.6701354314562519E-016
 chl          69   2.0288670170687616E-007   9.3357084336786900E-006   2.1732330561541505E-002
 chl2c          70   3.2658010878182209E-002   3.2658010878182209E-002  0.48694062500000002        1.4103182364935160E-005   1.0532812295156679E-017
 chl          70   3.0488532245542733E-007   9.3356978657604539E-006   3.2658010878182209E-002
 chl2c          71   4.3481058864416305E-002   4.3481058864416305E-002  0.23986107500000001        1.0189373199118397E-005   1.1567640687909630E-008
 chl          71   4.0594181591182526E-007   9.3360609542109560E-006   4.3481058864416305E-002
 chl2c          72   3.7549776402781669E-002   3.7549776402781669E-002  0.62790522500000001        2.0929858083894920E-005   6.3962617616332933E-016
 chl          72   3.5077902160584891E-007   9.3417073338381680E-006   3.7549776402781669E-002
 chl2c          73   3.1852614277819484E-002   3.1852614277819484E-002  0.35362212500000001        1.4103182364935160E-005   8.9696395220594914E-019
 chl          73   2.9736638313231997E-007   9.3356978657601287E-006   3.1852614277819484E-002
 chl2c          74  0.42899549770309592        3.7616827685877569E-002  0.64719590000000005        2.0929858083894920E-005   1.3315860373354237E-005
 chl          74   4.1029297854291510E-006   9.5640392670711741E-006  0.42899549770309592     
 chl2c          75   3.7826830779512356E-002   3.7826830779512356E-002  0.71554212500000003        2.0929858083894920E-005   6.3962617616332933E-016
 chl          75   3.5336718250687282E-007   9.3417073337865346E-006   3.7826830779512356E-002
 chl2c          76  0.31913085623226833        3.7257729557919804E-002  0.55513977500000000        2.0929858083894920E-005   7.8555937359844637E-006
 chl          76   3.0300104478186579E-006   9.4945706084070101E-006  0.31913085623226833     
 chl2c          77  0.36688204344438646        3.7138172437479272E-002  0.52973029999999999        2.0929858083894920E-005   1.2489194975460590E-005
 chl          77   3.4989910275549748E-006   9.5371007932291101E-006  0.36688204344438646     
 chl2c          78   4.7515248899399322E-002   4.7515248899399322E-002  0.45117492500000000        1.0189373199118397E-005   1.0869048136366976E-017
 chl          78   4.4358800774120278E-007   9.3356978657605335E-006   4.7515248899399322E-002
 prod   3.2457814430074237E-009   14.883246981649226        10.000000000000000     
 chl2c           1  0.41338412770825295        3.7477407714772232E-002  0.60826437499999997        1.6937473391526209E-005   1.0926900464441059E-005
 chl           1   2.1198068226587845E-006   5.1279347235964615E-006  0.41338412770825295     
 chl2c           2   3.2640259920490348E-002   3.2640259920490348E-002  0.48302390000000001        1.1472035937299174E-005   4.8784900496400949E-019
 chl           2   1.6408622532219233E-007   5.0271114789495003E-006   3.2640259920490348E-002
 chl2c           3   3.7922212503796585E-002   3.7922212503796585E-002  0.75128689999999998        1.6937473391526209E-005   6.6596533207671263E-016
 chl           3   1.9086706881615179E-007   5.0331205964589520E-006   3.7922212503796585E-002
 chl2c           4  0.48499861956183610        3.7976509103863923E-002  0.77318742499999993        1.6937473391526209E-005   1.1019624807389673E-005
 chl           4   2.4925028104779287E-006   5.1391956800407773E-006  0.48499861956183610     
 chl2c           5   2.5710500362372445E-002   2.5710500362372445E-002  0.48489679999999996        9.4094591419391370E-006   4.8968248983973457E-016
 chl           5   1.2924955150145389E-007   5.0271114789586829E-006   2.5710500362372445E-002
 chl2c           6   3.1261039902252048E-002   3.1261039902252048E-002  0.29222855000000003        1.1472035937299174E-005   3.2345076980071659E-009
 chl           6   1.5715456866730698E-007   5.0271702143851447E-006   3.1261039902252048E-002
 chl2c           7   4.3064391842467263E-002   4.3064391842467263E-002  0.22770740000000000        8.3427457720272044E-006   3.8046106016687682E-009
 chl           7   2.1649226311131895E-007   5.0271756745866444E-006   4.3064391842467263E-002
 chl2c           8   4.7969800906495587E-002   4.7969800906495587E-002  0.49578364999999996        8.3427457720272044E-006   8.4883785398722276E-009
 chl           8   2.4115640823031913E-007   5.0272547242876751E-006   4.7969800906495587E-002
 chl2c           9  0.24672418607124019        2.4803669054600401E-002  0.28700202499999999        9.4094591419391370E-006   8.2711365401555562E-006
 chl           9   1.2495176377072589E-006   5.0644310864053998E-006  0.24672418607124019     
 chl2c          10   2.5387016219684602E-002   2.5387016219684602E-002  0.39094662499999999        9.4094591419391370E-006   5.0092955330174322E-016
 chl          10   1.2762336068152688E-007   5.0271114800237998E-006   2.5387016219684602E-002
 chl2c          11   2.1820572217820047E-002   2.1820572217820047E-002  0.49737575000000001        1.6937473391526209E-005   5.0275999860231450E-016
 chl          11   1.0969444907364888E-007   5.0271114789586279E-006   2.1820572217820047E-002
 chl2c          12   4.5290941298723353E-002   4.5290941298723353E-002  0.30768942500000002        8.3427457720272044E-006   5.0085191407922637E-019
 chl          12   2.2768261089524011E-007   5.0271114789494994E-006   4.5290941298723353E-002
 chl2c          13   3.7935816987997487E-002   3.7935816987997487E-002  0.75666275000000005        1.6937473391526209E-005   8.0191104066208017E-016
 chl          13   1.9093555655364063E-007   5.0331209846897652E-006   3.7935816987997487E-002
 chl2c          14   4.6856526101924839E-002   4.6856526101924839E-002  0.39804095000000000        8.3427457720272044E-006   6.4078857660875633E-018
 chl          14   2.3555298023068823E-007   5.0271114789496070E-006   4.6856526101924839E-002
 chl2c          15   2.0954299823745293E-002   2.0954299823745293E-002  0.25607262500000000        1.6937473391526209E-005   5.0799218683711121E-016
 chl          15   1.0533960122228255E-007   5.0271114810962239E-006   2.0954299823745293E-002
 chl2c          16  0.21588100839734622        3.7823443882273475E-002  0.71433214999999994        1.6937473391526209E-005   2.6200565812426111E-006
 chl          16   1.0943100581915507E-006   5.0690427394029296E-006  0.21588100839734622     
 chl2c          17   3.7542254757581245E-002   3.7542254757581245E-002  0.62580860000000005        1.6937473391526209E-005   6.6596533207671263E-016
 chl          17   1.8895469565789125E-007   5.0331205964589520E-006   3.7542254757581245E-002
 chl2c          18   2.5694475239060960E-002   2.5694475239060960E-002  0.47925950000000000        9.4094591419391370E-006   5.0496451415548249E-016
 chl          18   1.2916899142010262E-007   5.0271114789586677E-006   2.5694475239060960E-002
 chl2c          19  0.42798896727688268        3.7570220750293731E-002  0.63367130000000005        1.6937473391526209E-005   1.1166530402201468E-005
 chl          19   2.1959716274965501E-006   5.1309070919949459E-006  0.42798896727688268     
 chl2c          20   3.7020645196759419E-002   3.7020645196759419E-002  0.50678202500000002        1.6937473391526209E-005   8.1559657441366661E-016
 chl          20   1.8632937183094578E-007   5.0331205963762079E-006   3.7020645196759419E-002
 chl2c          21  0.49625359835767735        3.7838475073783531E-002  0.71973185000000006        1.6937473391526209E-005   1.3534984285579883E-005
 chl          21   2.5547040826741566E-006   5.1479809741003441E-006  0.49625359835767735     
 chl2c          22  0.40714664250842542        3.7613353106285476E-002  0.64616892500000001        1.6937473391526209E-005   9.3213146284876539E-006
 chl          22   2.0855649219681101E-006   5.1223925343433275E-006  0.40714664250842542     
 chl2c          23   3.2286562315070731E-002   3.2286562315070731E-002  0.41564179999999995        1.1472035937299174E-005   3.8071569231813993E-009
 chl          23   1.6231022281132457E-007   5.0271757404027299E-006   3.2286562315070731E-002
 chl2c          24   3.7348402796863071E-002   3.7348402796863071E-002  0.57597492500000003        1.6937473391526209E-005   7.8489756636873642E-016
 chl          24   1.8797901535862535E-007   5.0331205963756471E-006   3.7348402796863071E-002
 chl2c          25   4.5426679235459781E-002   4.5426679235459781E-002  0.31406487500000002        8.3427457720272044E-006   2.5280177843436840E-009
 chl          25   2.2836691905616180E-007   5.0271541503720573E-006   4.5426679235459781E-002
 chl2c          26   4.7955660680174553E-002   4.7955660680174553E-002  0.49427735000000000        8.3427457720272044E-006   4.8137317745730522E-019
 chl          26   2.4107845228591267E-007   5.0271114789494994E-006   4.7955660680174553E-002
 chl2c          27   4.5333133499525620E-002   4.5333133499525620E-002  0.30964730000000001        8.3427457720272044E-006   6.3526720747401734E-018
 chl          27   2.2789471579222016E-007   5.0271114789496061E-006   4.5333133499525620E-002
 chl2c          28   3.1209236063453518E-002   3.1209236063453518E-002  0.28776342500000002        1.1472035937299174E-005   6.3133706574954476E-018
 chl          28   1.5689230886383517E-007   5.0271114789496053E-006   3.1209236063453518E-002
 chl2c          29   5.3566671388423664E-002   3.7743217595736761E-002  0.68676297499999994        1.6937473391526209E-005   4.9201890822152960E-007
 chl          29   2.7001041667601688E-007   5.0406420574112625E-006   5.3566671388423664E-002
 chl2c          30   2.5380056985171612E-002   2.5380056985171612E-002  0.38930277499999999        9.4094591419391370E-006   5.0943993251325608E-016
 chl          30   1.2758837580678340E-007   5.0271114789587490E-006   2.5380056985171612E-002
 chl2c          31   3.7576959810037038E-002   3.7576959810037038E-002  0.63559385000000002        1.6937473391526209E-005   8.2013767411614710E-016
 chl          31   1.8912937038207808E-007   5.0331205967216237E-006   3.7576959810037038E-002
 chl2c          32  0.14855237135928295        2.0893126428578448E-002  0.24722667500000001        1.6937473391526209E-005   3.1520237194879416E-006
 chl          32   7.5150240130083302E-007   5.0588381351602846E-006  0.14855237135928295     
 chl2c          33  0.43548067666076506        3.7458922634011876E-002  0.60343137499999999        1.6937473391526209E-005   1.3250540463222665E-005
 chl          33   2.2370499335178274E-006   5.1369671570076710E-006  0.43548067666076506     
 chl2c          34   2.5350269098008315E-002   2.5350269098008315E-002  0.38241020000000003        9.4094591419391370E-006   4.8816910026372435E-016
 chl          34   1.2743862877728106E-007   5.0271114789583628E-006   2.5350269098008315E-002
 chl2c          35   2.5740370148566064E-002   2.5740370148566064E-002  0.49574644999999995        9.4094591419391370E-006   4.9202229026369021E-016
 chl          35   1.2939971024649544E-007   5.0271114789584331E-006   2.5740370148566064E-002
 chl2c          36   3.7770393924465726E-002   3.7770393924465726E-002  0.69587337500000002        1.6937473391526209E-005   6.6596533207671263E-016
 chl          36   1.9010294759759650E-007   5.0331205964589520E-006   3.7770393924465726E-002
 chl2c          37   2.1353674699533250E-002   2.1353674699533250E-002  0.33194060000000003        1.6937473391526209E-005   4.8651377641449712E-016
 chl          37   1.0734730319996574E-007   5.0271114789583331E-006   2.1353674699533250E-002
 chl2c          38   2.1543295686358745E-002   2.1543295686358745E-002  0.38455722500000000        1.6937473391526209E-005   5.1039592966337423E-016
 chl          38   1.0830054903949692E-007   5.0271114789587668E-006   2.1543295686358745E-002
 chl2c          39   2.5670077108751441E-002   2.5670077108751441E-002  0.47091117500000002        9.4094591419391370E-006   4.9946405520009506E-016
 chl          39   1.2904633929915593E-007   5.0271114789585677E-006   2.5670077108751441E-002
 chl2c          40  0.21006066376737714        3.7687445774703773E-002  0.66875547499999999        1.6937473391526209E-005   2.5936232274833006E-006
 chl          40   1.0646722025557141E-006   5.0684034957384528E-006  0.21006066376737714     
 chl2c          41  0.30337319106670002        2.5582381488167241E-002  0.44304987499999998        9.4094591419391370E-006   4.5273134845009074E-006
 chl          41   1.5368757214269135E-006   5.0659575950764023E-006  0.30337319106670002     
 chl2c          42  0.31900094476049801        3.7949995630725070E-002  0.76234377499999995        1.6937473391526209E-005   4.6453855909300981E-006
 chl          42   1.6241639746675833E-006   5.0914080392049804E-006  0.31900094476049801     
 chl2c          43  0.22859031470685479        2.1185090152268007E-002  0.29539925000000000        1.6937473391526209E-005   8.5595571021439242E-006
 chl          43   1.1622376428442081E-006   5.0843695820387958E-006  0.22859031470685479     
 chl2c          44   3.7536352708156646E-002   3.7536352708156646E-002  0.62417262500000004        1.6937473391526209E-005   7.8658085730705912E-016
 chl          44   1.8892498992824521E-007   5.0331205963756793E-006   3.7536352708156646E-002
 chl2c          45   4.6544927192009838E-002   4.6544927192009838E-002  0.37662252499999999        8.3427457720272044E-006   6.4102001931565144E-019
 chl          45   2.3398653777382146E-007   5.0271114789495019E-006   4.6544927192009838E-002
 chl2c          46   3.7083195475449568E-002   3.7083195475449568E-002  0.51876034999999998        1.6937473391526209E-005   8.2001652535741907E-016
 chl          46   1.8664421603504665E-007   5.0331211655859576E-006   3.7083195475449568E-002
 chl2c          47   3.7519784612651236E-002   3.7519784612651236E-002  0.61962282499999999        1.6937473391526209E-005   8.2197143522087924E-016
 chl          47   1.8884160070553829E-007   5.0331205963763205E-006   3.7519784612651236E-002
 chl2c          48  0.14764093292576924        3.7823212136301673E-002  0.71424949999999998        1.6937473391526209E-005   1.5761306674695066E-006
 chl          48   7.4646550280451303E-007   5.0559522214602927E-006  0.14764093292576924     
 chl2c          49   3.7152990741888416E-002   3.7152990741888416E-002  0.53276120000000005        1.6937473391526209E-005   8.0660191004572433E-016
 chl          49   1.8699548291996695E-007   5.0331205963760410E-006   3.7152990741888416E-002
 chl2c          50  0.25440609559607930        2.1533072915600981E-002  0.38132569999999999        1.6937473391526209E-005   6.4731177849469329E-006
 chl          50   1.2936035739697176E-006   5.0847978738039861E-006  0.25440609559607930     
 chl2c          51   2.0700971146093840E-002   2.0700971146093840E-002  0.22275920000000002        1.6937473391526209E-005   5.1314099335147626E-016
 chl          51   1.0406608967412360E-007   5.0271114789588168E-006   2.0700971146093840E-002
 chl2c          52   7.1808267303087328E-002   3.7581825176985564E-002  0.63698869999999996        1.6937473391526209E-005   6.8538988118629311E-007
 chl          52   3.6216394079320348E-007   5.0434853032254207E-006   7.1808267303087328E-002
 chl2c          53  0.32499192860738613        3.7925801262726190E-002  0.75269794999999995        1.6937473391526209E-005   4.8435810810205473E-006
 chl          53   1.6552355372849983E-006   5.0931589112929729E-006  0.32499192860738613     
 chl2c          54   3.7082433371327092E-002   3.7082433371327092E-002  0.51861124999999997        1.6937473391526209E-005   7.8632980488330315E-016
 chl          54   1.8664035916495494E-007   5.0331205963756726E-006   3.7082433371327092E-002
 chl2c          55  0.39860565533333542        3.7357235588660491E-002  0.57808280000000001        1.6937473391526209E-005   1.0872839632250896E-005
 chl          55   2.0430053427548739E-006   5.1253797215857441E-006  0.39860565533333542     
 chl2c          56   3.7507394187257688E-002   3.7507394187257688E-002  0.61626080000000005        1.6937473391526209E-005   6.6596533207671263E-016
 chl          56   1.8877923820339145E-007   5.0331205964589520E-006   3.7507394187257688E-002
 chl2c          57   3.7727617852646313E-002   3.7727617852646313E-002  0.68163462500000005        1.6937473391526209E-005   8.2907688924403698E-016
 chl          57   1.8988765046637919E-007   5.0331205963765874E-006   3.7727617852646313E-002
 chl2c          58  0.45488729503701181        3.7765358178394853E-002  0.69416802499999997        1.6937473391526209E-005   1.1175817926407611E-005
 chl          58   2.3359202844507590E-006   5.1351627313765654E-006  0.45488729503701181     
 chl2c          59  0.40172638834161561        3.7173699120809672E-002  0.53705127500000005        1.6937473391526209E-005   1.3501656990899501E-005
 chl          59   2.0613847466221290E-006   5.1313152594526390E-006  0.40172638834161561     
 chl2c          60  0.45515953789931685        3.7607757740906807E-002  0.64452155000000000        1.6937473391526209E-005   1.3119789327133698E-005
 chl          60   2.3395693785809300E-006   5.1401084318229805E-006  0.45515953789931685     
 chl2c          61   3.7805373434125003E-002   3.7805373434125003E-002  0.70794139999999994        1.6937473391526209E-005   8.1245859105105623E-016
 chl          61   1.9027900368498622E-007   5.0331205963761477E-006   3.7805373434125003E-002
 chl2c          62  0.16364887886665438        3.7956103087269030E-002  0.76481592499999995        1.6937473391526209E-005   1.7631668862328708E-006
 chl          62   8.2782842684178868E-007   5.0585646084158395E-006  0.16364887886665438     
 chl2c          63  0.46599248012358219        3.7855601011927406E-002  0.72597904999999996        1.6937473391526209E-005   1.1019723882070237E-005
 chl          63   2.3935190189078349E-006   5.1363897938290091E-006  0.46599248012358219     
 chl2c          64   2.5708982294816416E-002   2.5708982294816416E-002  0.48435739999999999        9.4094591419391370E-006   4.7756042097001062E-016
 chl          64   1.2924192000660399E-007   5.0271114789581705E-006   2.5708982294816416E-002
 chl2c          65  0.47726055774013398        3.7953597170552002E-002  0.76379975000000000        1.6937473391526209E-005   1.0773818483495672E-005
 chl          65   2.4518197139922354E-006   5.1372770580535574E-006  0.47726055774013398     
 chl2c          66   3.1840477731474713E-002   3.1840477731474713E-002  0.35213202499999996        1.1472035937299174E-005   5.2722706819134702E-019
 chl          66   1.6006563109913248E-007   5.0271114789495003E-006   3.1840477731474713E-002
 chl2c          67   3.7937587124568600E-002   3.7937587124568600E-002  0.75736760000000003        1.6937473391526209E-005   8.0578133661033076E-016
 chl          67   1.9094445113347618E-007   5.0331205963760266E-006   3.7937587124568600E-002
 chl2c          68  0.46831062862762229        3.7855407263856986E-002  0.72590779999999999        1.6937473391526209E-005   1.1176170483692241E-005
 chl          68   2.4058101402841413E-006   5.1372102045480666E-006  0.46831062862762229     
 chl2c          69   2.1732330561541505E-002   2.1732330561541505E-002  0.45524217500000003        1.6937473391526209E-005   4.9003268733110666E-016
 chl          69   1.0925084846717920E-007   5.0271114806487593E-006   2.1732330561541505E-002
 chl2c          70   3.2658010878182209E-002   3.2658010878182209E-002  0.48694062500000002        1.1472035937299174E-005   7.7973362367649699E-018
 chl          70   1.6417546136537174E-007   5.0271114789496324E-006   3.2658010878182209E-002
 chl2c          71   4.3481058864416305E-002   4.3481058864416305E-002  0.23986107500000001        8.3427457720272044E-006   9.4047545167093346E-009
 chl          71   2.1859103099921931E-007   5.0272701886316790E-006   4.3481058864416305E-002
 chl2c          72   3.7549776402781669E-002   3.7549776402781669E-002  0.62790522500000001        1.6937473391526209E-005   6.6596533207671263E-016
 chl          72   1.8899256512682245E-007   5.0331209192718911E-006   3.7549776402781669E-002
 chl2c          73   3.1852614277819484E-002   3.1852614277819484E-002  0.35362212500000001        1.1472035937299174E-005   6.6201866338863972E-019
 chl          73   1.6012664287057717E-007   5.0271114789495028E-006   3.1852614277819484E-002
 chl2c          74  0.46140537429606909        3.7616827685877569E-002  0.64719590000000005        1.6937473391526209E-005   1.3611734602903785E-005
 chl          74   2.3726649394088702E-006   5.1422568344130444E-006  0.46140537429606909     
 chl2c          75   3.7826830779512356E-002   3.7826830779512356E-002  0.71554212500000003        1.6937473391526209E-005   6.6596533207671263E-016
 chl          75   1.9038700109513106E-007   5.0331205964589520E-006   3.7826830779512356E-002
 chl2c          76  0.29612328996805293        3.7257729557919804E-002  0.55513977500000000        1.6937473391526209E-005   5.3748473645726663E-006
 chl          76   1.5080777442444545E-006   5.0927360168366108E-006  0.29612328996805293     
 chl2c          77  0.39417922433846209        3.7138172437479272E-002  0.52973029999999999        1.6937473391526209E-005   1.3045604482298026E-005
 chl          77   2.0217910571813679E-006   5.1291162302490010E-006  0.39417922433846209     
 chl2c          78   4.7515248899399322E-002   4.7515248899399322E-002  0.45117492500000000        8.3427457720272044E-006   8.0473490489807044E-018
 chl          78   2.3886445316731941E-007   5.0271114789496366E-006   4.7515248899399322E-002
 prod   2.3945787327881745E-009   12.018767388315219        10.000000000000000     
 chl2c           1  0.44808231124831216        3.7477407714772232E-002  0.60826437499999997        1.3252863180694711E-005   1.1274986100896743E-005
 chl           1   3.2957423323852920E-007   7.3552163289010140E-007  0.44808231124831216     
 chl2c           2   3.2640259920490348E-002   3.2640259920490348E-002  0.48302390000000001        9.0249131046358531E-006   3.1349068590072215E-019
 chl           2   2.3464677393394620E-008   7.1888757781197579E-007   3.2640259920490348E-002
 chl2c           3   3.7922212503796585E-002   3.7922212503796585E-002  0.75128689999999998        1.3252863180694711E-005   7.0074323462201812E-016
 chl           3   2.7432708484432305E-008   7.2339419757446584E-007   3.7922212503796585E-002
 chl2c           4  0.52573282394794651        3.7976509103863923E-002  0.77318742499999993        1.3252863180694711E-005   1.0885141037102282E-005
 chl           4   3.8740917293678140E-007   7.3689363739468410E-007  0.52573282394794651     
 chl2c           5   2.5710500362372445E-002   2.5710500362372445E-002  0.48489679999999996        7.4329127298510508E-006   5.0815671890808048E-016
 chl           5   1.8482959329873789E-008   7.1888757781329578E-007   2.5710500362372445E-002
 chl2c           6   3.1261039902252048E-002   3.1261039902252048E-002  0.29222855000000003        9.0249131046358531E-006   1.9666109404520797E-008
 chl           6   2.2474760459156209E-008   7.1893835040136095E-007   3.1261039902252048E-002
 chl2c           7   4.3064391842467263E-002   4.3064391842467263E-002  0.22770740000000000        6.6109797348088930E-006   1.1324293301866429E-009
 chl           7   3.0958574222053568E-008   7.1889031511932940E-007   4.3064391842467263E-002
 chl2c           8   4.7969800906495587E-002   4.7969800906495587E-002  0.49578364999999996        6.6109797348088930E-006   5.2608111876996118E-009
 chl           8   3.4485503115589013E-008   7.1890027608847826E-007   4.7969800906495587E-002
 chl2c           9  0.25266777437048210        2.4803669054600401E-002  0.28700202499999999        7.4329127298510508E-006   7.8493967456869955E-006
 chl           9   1.8275349482971887E-007   7.2329562123640978E-007  0.25266777437048210     
 chl2c          10   2.5387016219684602E-002   2.5387016219684602E-002  0.39094662499999999        7.4329127298510508E-006   5.1625963094009520E-016
 chl          10   1.8250410598079227E-008   7.1888757781342623E-007   2.5387016219684602E-002
 chl2c          11   2.1820572217820047E-002   2.1820572217820047E-002  0.49737575000000001        1.3252863180694711E-005   5.1756777294334491E-016
 chl          11   1.5686538308169279E-008   7.1888757781332003E-007   2.1820572217820047E-002
 chl2c          12   4.5290941298723353E-002   4.5290941298723353E-002  0.30768942500000002        6.6109797348088930E-006   3.2184904262410602E-019
 chl          12   3.2559095087063619E-008   7.1888757781197589E-007   4.5290941298723353E-002
 chl2c          13  0.16287035828766974        3.7935816987997487E-002  0.75666275000000005        1.3252863180694711E-005   1.3752748352002505E-006
 chl          13   1.1828076922764531E-007   7.2622649370447095E-007  0.16287035828766974     
 chl2c          14   4.6856526101924839E-002   4.6856526101924839E-002  0.39804095000000000        6.6109797348088930E-006   4.1355013202917035E-018
 chl          14   3.3684574554096836E-008   7.1888757781198574E-007   4.6856526101924839E-002
 chl2c          15   2.0954299823745293E-002   2.0954299823745293E-002  0.25607262500000000        1.3252863180694711E-005   5.2129076553528038E-016
 chl          15   1.5063785845071146E-008   7.1888757781354968E-007   2.0954299823745293E-002
 chl2c          16  0.35461247294568088        3.7823443882273475E-002  0.71433214999999994        1.3252863180694711E-005   4.6662685348176266E-006
 chl          16   2.5926840838528047E-007   7.3113166672226697E-007  0.35461247294568088     
 chl2c          17   3.7542254757581245E-002   3.7542254757581245E-002  0.62580860000000005        1.3252863180694711E-005   7.0074323462201812E-016
 chl          17   2.7157849255496658E-008   7.2339419757446584E-007   3.7542254757581245E-002
 chl2c          18   2.5694475239060960E-002   2.5694475239060960E-002  0.47925950000000000        7.4329127298510508E-006   5.1913933570538109E-016
 chl          18   1.8471439067792968E-008   7.1888757781332416E-007   2.5694475239060960E-002
 chl2c          19  0.46176698593068777        3.7570220750293731E-002  0.63367130000000005        1.3252863180694711E-005   1.1279240591095679E-005
 chl          19   3.3976788316309982E-007   7.3579942593405694E-007  0.46176698593068777     
 chl2c          20   3.7020645196759419E-002   3.7020645196759419E-002  0.50678202500000002        1.3252863180694711E-005   8.5883473697643384E-016
 chl          20   2.6780519926732741E-008   7.2339419759969387E-007   3.7020645196759419E-002
 chl2c          21  0.53483875201685538        3.7838475073783531E-002  0.71973185000000006        1.3252863180694711E-005   1.3795981647376322E-005
 chl          21   3.9468849787548854E-007   7.3795792916488219E-007  0.53483875201685538     
 chl2c          22  0.42251191745025729        3.7613353106285476E-002  0.64616892500000001        1.3252863180694711E-005   8.0887654172194770E-006
 chl          22   3.1011892582031911E-007   7.3398858827888495E-007  0.42251191745025729     
 chl2c          23   3.2286562315070731E-002   3.2286562315070731E-002  0.41564179999999995        9.0249131046358531E-006   4.0914344639943115E-009
 chl          23   2.3210727257685142E-008   7.1889744814519422E-007   3.2286562315070731E-002
 chl2c          24   3.7348402796863071E-002   3.7348402796863071E-002  0.57597492500000003        1.3252863180694711E-005   8.3564694193518983E-016
 chl          24   2.7017617871872299E-008   7.2339419757306284E-007   3.7348402796863071E-002
 chl2c          25   4.5426679235459781E-002   4.5426679235459781E-002  0.31406487500000002        6.6109797348088930E-006   2.8959460001088273E-009
 chl          25   3.2656992747759081E-008   7.1889456366573315E-007   4.5426679235459781E-002
 chl2c          26   4.7955660680174553E-002   4.7955660680174553E-002  0.49427735000000000        6.6109797348088930E-006   3.0932803340541813E-019
 chl          26   3.4474728748743689E-008   7.1888757781197579E-007   4.7955660680174553E-002
 chl2c          27   4.5333133499525620E-002   4.5333133499525620E-002  0.30964730000000001        6.6109797348088930E-006   4.0997426615654702E-018
 chl          27   3.2589426536101358E-008   7.1888757781198563E-007   4.5333133499525620E-002
 chl2c          28   3.1209236063453518E-002   3.1209236063453518E-002  0.28776342500000002        9.0249131046358531E-006   4.0742907734149296E-018
 chl          28   2.2435932119018569E-008   7.1888757781198563E-007   3.1209236063453518E-002
 chl2c          29   3.7743217595736761E-002   3.7743217595736761E-002  0.68676297499999994        1.3252863180694711E-005   8.5492941214811605E-016
 chl          29   2.7303253800376980E-008   7.2339497105993912E-007   3.7743217595736761E-002
 chl2c          30   2.5380056985171612E-002   2.5380056985171612E-002  0.38930277499999999        7.4329127298510508E-006   5.2231668132164157E-016
 chl          30   1.8245407690834367E-008   7.1888757781333242E-007   2.5380056985171612E-002
 chl2c          31   3.7576959810037038E-002   3.7576959810037038E-002  0.63559385000000002        1.3252863180694711E-005   8.6222169762377891E-016
 chl          31   2.7182954689020904E-008   7.2339419757316745E-007   3.7576959810037038E-002
 chl2c          32   9.8895574943205736E-002   2.0893126428578448E-002  0.24722667500000001        1.3252863180694711E-005   1.0922440532015177E-006
 chl          32   7.1291964918956450E-008   7.2088124225880042E-007   9.8895574943205736E-002
 chl2c          33  0.46508906436144160        3.7458922634011876E-002  0.60343137499999999        1.3252863180694711E-005   1.3442768169959694E-005
 chl          33   3.4248896884537790E-007   7.3639437064728391E-007  0.46508906436144160     
 chl2c          34   2.5350269098008315E-002   2.5350269098008315E-002  0.38241020000000003        7.4329127298510508E-006   5.0705779278815837E-016
 chl          34   1.8223993548782369E-008   7.1888757781329292E-007   2.5350269098008315E-002
 chl2c          35   2.5740370148566064E-002   2.5740370148566064E-002  0.49574644999999995        7.4329127298510508E-006   5.0985169393928371E-016
 chl          35   1.8504432348120433E-008   7.1888757781330012E-007   2.5740370148566064E-002
 chl2c          36   3.7770393924465726E-002   3.7770393924465726E-002  0.69587337500000002        1.3252863180694711E-005   7.0074323462201812E-016
 chl          36   2.7322883805060362E-008   7.2339419757446584E-007   3.7770393924465726E-002
 chl2c          37   2.1353674699533250E-002   2.1353674699533250E-002  0.33194060000000003        1.3252863180694711E-005   5.0585344728034276E-016
 chl          37   1.5350891482160387E-008   7.1888757781328975E-007   2.1353674699533250E-002
 chl2c          38   2.1543295686358745E-002   2.1543295686358745E-002  0.38455722500000000        1.3252863180694711E-005   5.2299312508158466E-016
 chl          38   1.5487207654082887E-008   7.1888757781333411E-007   2.1543295686358745E-002
 chl2c          39   2.5670077108751441E-002   2.5670077108751441E-002  0.47091117500000002        7.4329127298510508E-006   5.1521017259217417E-016
 chl          39   1.8453899554991322E-008   7.1888757781331399E-007   2.5670077108751441E-002
 chl2c          40  0.34199365814161031        3.7687445774703773E-002  0.66875547499999999        1.3252863180694711E-005   4.6380328449419401E-006
 chl          40   2.4998109767579542E-007   7.3095243646969916E-007  0.34199365814161031     
 chl2c          41  0.34983045989439387        2.5582381488167241E-002  0.44304987499999998        7.4329127298510508E-006   6.1792092723567116E-006
 chl          41   2.5344242763034973E-007   7.2447215633212280E-007  0.34983045989439387     
 chl2c          42  0.44763985841777293        3.7949995630725070E-002  0.76234377499999995        1.3252863180694711E-005   7.1855030652682143E-006
 chl          42   3.2855137743668644E-007   7.3396363451186761E-007  0.44763985841777293     
 chl2c          43  0.23992582641651092        2.1185090152268007E-002  0.29539925000000000        1.3252863180694711E-005   8.4660560026326713E-006
 chl          43   1.7415406272733059E-007   7.2586626178792182E-007  0.23992582641651092     
 chl2c          44   3.7536352708156646E-002   3.7536352708156646E-002  0.62417262500000004        1.3252863180694711E-005   8.3693167259688974E-016
 chl          44   2.7153579747675792E-008   7.2339419758743159E-007   3.7536352708156646E-002
 chl2c          45   4.6544927192009838E-002   4.6544927192009838E-002  0.37662252499999999        6.6109797348088930E-006   4.1195899402146152E-019
 chl          45   3.3460569968498738E-008   7.1888757781197611E-007   4.6544927192009838E-002
 chl2c          46   3.7083195475449568E-002   3.7083195475449568E-002  0.51876034999999998        1.3252863180694711E-005   8.6213148164420168E-016
 chl          46   2.6825768436581133E-008   7.2339419763166778E-007   3.7083195475449568E-002
 chl2c          47   3.7519784612651236E-002   3.7519784612651236E-002  0.61962282499999999        1.3252863180694711E-005   8.6358629575440343E-016
 chl          47   2.7141594482985719E-008   7.2339419757313558E-007   3.7519784612651236E-002
 chl2c          48  0.32170373155712589        3.7823212136301673E-002  0.71424949999999998        1.3252863180694711E-005   3.8787828093205620E-006
 chl          48   2.3489038926203847E-007   7.3014505652486743E-007  0.32170373155712589     
 chl2c          49   3.7152990741888416E-002   3.7152990741888416E-002  0.53276120000000005        1.3252863180694711E-005   8.5209359332658921E-016
 chl          49   2.6876257925169395E-008   7.2339419757310572E-007   3.7152990741888416E-002
 chl2c          50  0.25010370629362938        2.1533072915600981E-002  0.38132569999999999        1.3252863180694711E-005   4.8160311877474556E-006
 chl          50   1.8136793310323480E-007   7.2517091326229011E-007  0.25010370629362938     
 chl2c          51   2.0700971146093840E-002   2.0700971146093840E-002  0.22275920000000002        1.3252863180694711E-005   5.2493103924379305E-016
 chl          51   1.4881671005599225E-008   7.1888757781333919E-007   2.0700971146093840E-002
 chl2c          52  0.23234987881169747        3.7581825176985564E-002  0.63698869999999996        1.3252863180694711E-005   2.4237417868087987E-006
 chl          52   1.6913629149326073E-007   7.2793793721034509E-007  0.23234987881169747     
 chl2c          53  0.43584354825285210        3.7925801262726190E-002  0.75269794999999995        1.3252863180694711E-005   6.8607458063091752E-006
 chl          53   3.1973994557200563E-007   7.3361174406213843E-007  0.43584354825285210     
 chl2c          54   3.7082433371327092E-002   3.7082433371327092E-002  0.51861124999999997        1.3252863180694711E-005   8.3674016185815992E-016
 chl          54   2.6825217132707835E-008   7.2339419757306570E-007   3.7082433371327092E-002
 chl2c          55  0.40617129823034881        3.7357235588660491E-002  0.57808280000000001        1.3252863180694711E-005   9.0505310658661517E-006
 chl          55   2.9814799462256862E-007   7.3404496063993722E-007  0.40617129823034881     
 chl2c          56   3.7507394187257688E-002   3.7507394187257688E-002  0.61626080000000005        1.3252863180694711E-005   7.0074323462201812E-016
 chl          56   2.7132631321200459E-008   7.2339419757446584E-007   3.7507394187257688E-002
 chl2c          57   3.7727617852646313E-002   3.7727617852646313E-002  0.68163462500000005        1.3252863180694711E-005   8.6885704358734893E-016
 chl          57   2.7291939842861499E-008   7.2339419757314924E-007   3.7727617852646313E-002
 chl2c          58  0.49377607568649950        3.7765358178394853E-002  0.69416802499999997        1.3252863180694711E-005   1.1334284193207670E-005
 chl          58   3.6363928327388909E-007   7.3644573153593853E-007  0.49377607568649950     
 chl2c          59  0.42792316887250237        3.7173699120809672E-002  0.53705127500000005        1.3252863180694711E-005   1.3954833316631691E-005
 chl          59   3.1480484018394678E-007   7.3565738684679949E-007  0.42792316887250237     
 chl2c          60  0.48954339612511305        3.7607757740906807E-002  0.64452155000000000        1.3252863180694711E-005   1.3490805307026611E-005
 chl          60   3.6076073336274405E-007   7.3693310178071344E-007  0.48954339612511305     
 chl2c          61   3.7805373434125003E-002   3.7805373434125003E-002  0.70794139999999994        1.3252863180694711E-005   8.5648786345618070E-016
 chl          61   2.7348187779330899E-008   7.2339419757311716E-007   3.7805373434125003E-002
 chl2c          62  0.34039894125010683        3.7956103087269030E-002  0.76481592499999995        1.3252863180694711E-005   4.0647335959327843E-006
 chl          62   2.4866339910105188E-007   7.3050579472380732E-007  0.34039894125010683     
 chl2c          63  0.50347467060767293        3.7855601011927406E-002  0.72597904999999996        1.3252863180694711E-005   1.0885361843096120E-005
 chl          63   3.7080128322321632E-007   7.3648448446408364E-007  0.50347467060767293     
 chl2c          64   2.5708982294816416E-002   2.5708982294816416E-002  0.48435739999999999        7.4329127298510508E-006   4.9929640810333315E-016
 chl          64   1.8481868009964887E-008   7.1888757781327270E-007   2.5708982294816416E-002
 chl2c          65  0.52620831058195860        3.7953597170552002E-002  0.76379975000000000        1.3252863180694711E-005   1.1209497507985410E-005
 chl          65   3.8782475141923792E-007   7.3701753396924536E-007  0.52620831058195860     
 chl2c          66   3.1840477731474713E-002   3.1840477731474713E-002  0.35213202499999996        9.0249131046358531E-006   3.3880360096646808E-019
 chl          66   2.2889723912756013E-008   7.1888757781197589E-007   3.1840477731474713E-002
 chl2c          67   3.7937587124568600E-002   3.7937587124568600E-002  0.75736760000000003        1.3252863180694711E-005   8.5147644483323849E-016
 chl          67   2.7443830395837028E-008   7.2339419757310413E-007   3.7937587124568600E-002
 chl2c          68  0.50976105120655890        3.7855407263856986E-002  0.72590779999999999        1.3252863180694711E-005   1.1344337122551309E-005
 chl          68   3.7556907690772016E-007   7.3675514443243880E-007  0.50976105120655890     
 chl2c          69   2.1732330561541505E-002   2.1732330561541505E-002  0.45524217500000003        1.3252863180694711E-005   5.0841071722192809E-016
 chl          69   1.5623102477628224E-008   7.1888757781347017E-007   2.1732330561541505E-002
 chl2c          70   3.2658010878182209E-002   3.2658010878182209E-002  0.48694062500000002        9.0249131046358531E-006   5.0360841130630253E-018
 chl          70   2.3477438336373965E-008   7.1888757781198807E-007   3.2658010878182209E-002
 chl2c          71   4.3481058864416305E-002   4.3481058864416305E-002  0.23986107500000001        6.6109797348088930E-006   6.0609527671280669E-009
 chl          71   3.1258629172756962E-008   7.1890220682592803E-007   4.3481058864416305E-002
 chl2c          72  0.13536395665520001        3.7549776402781669E-002  0.62790522500000001        1.3252863180694711E-005   1.1434948988499752E-006
 chl          72   9.8240221158006127E-008   7.2574874128601516E-007  0.13536395665520001     
 chl2c          73   3.1852614277819484E-002   3.1852614277819484E-002  0.35362212500000001        9.0249131046358531E-006   4.2545981681738392E-019
 chl          73   2.2898448725160816E-008   7.1888757781197611E-007   3.1852614277819484E-002
 chl2c          74  0.49418253130224538        3.7616827685877569E-002  0.64719590000000005        1.3252863180694711E-005   1.3850756335689693E-005
 chl          74   3.6426875338513269E-007   7.3711377944750435E-007  0.49418253130224538     
 chl2c          75   3.7826830779512356E-002   3.7826830779512356E-002  0.71554212500000003        1.3252863180694711E-005   7.0074323462201812E-016
 chl          75   2.7363709898530449E-008   7.2339419757446584E-007   3.7826830779512356E-002
 chl2c          76  0.26487675478141132        3.7257729557919804E-002  0.55513977500000000        1.3252863180694711E-005   3.3568675113738066E-006
 chl          76   1.9311739009930583E-007   7.2908394796166746E-007  0.26487675478141132     
 chl2c          77  0.42005876679592696        3.7138172437479272E-002  0.52973029999999999        1.3252863180694711E-005   1.3444686246263630E-005
 chl          77   3.0890608726418436E-007   7.3538778780983564E-007  0.42005876679592696     
 chl2c          78   4.7515248899399322E-002   4.7515248899399322E-002  0.45117492500000000        6.6109797348088930E-006   5.1982784016624954E-018
 chl          78   3.4158122190422932E-008   7.1888757781198849E-007   4.7515248899399322E-002
 prod   1.5382638998188500E-009   9.3840575632985317        10.000000000000000     
 chl2c           1  0.47946790959270585        3.7477407714772232E-002  0.60826437499999997        1.0032335897612777E-005   1.1358475640521710E-005
 chl           1   4.2343298182292620E-010   8.8313101534286264E-010  0.47946790959270585     
 chl2c           2   3.2640259920490348E-002   3.2640259920490348E-002  0.48302390000000001        6.8694485295352376E-006   2.6778224758965956E-019
 chl           2   4.2213905656985204E-012   1.2933078890859222E-010   3.2640259920490348E-002
 chl2c           3   3.7922212503796585E-002   3.7922212503796585E-002  0.75128689999999998        1.0032335897612777E-005   7.3620574408952658E-016
 chl           3   3.3413717977505875E-011   8.8111203886536572E-010   3.7922212503796585E-002
 chl2c           4  0.55753485913755529        3.7976509103863923E-002  0.77318742499999993        1.0032335897612777E-005   1.0027074632944223E-005
 chl           4   4.9249234092697200E-010   8.8333910042647933E-010  0.55753485913755529     
 chl2c           5   2.5710500362372445E-002   2.5710500362372445E-002  0.48489679999999996        5.6869701917187633E-006   5.2046101683982508E-016
 chl           5   3.3251592951064532E-012   1.2933078890883254E-010   2.5710500362372445E-002
 chl2c           6   3.1261039902252048E-002   3.1261039902252048E-002  0.29222855000000003        6.8694485295352376E-006   3.9549743817381819E-008
 chl           6   4.0434443831054427E-012   1.2934452582987020E-010   3.1261039902252048E-002
 chl2c           7   4.3064391842467263E-002   4.3064391842467263E-002  0.22770740000000000        5.0717027893855820E-006   2.6130089067319744E-019
 chl           7   5.5695623781886836E-012   1.2933103522191968E-010   4.3064391842467263E-002
 chl2c           8   4.7969800906495587E-002   4.7969800906495587E-002  0.49578364999999996        5.0717027893855820E-006   4.2327513104695480E-009
 chl           8   6.2040718202077365E-012   1.2933286573986268E-010   4.7969800906495587E-002
 chl2c           9  0.25467463724408240        2.4803669054600401E-002  0.28700202499999999        5.6869701917187633E-006   6.4291121395460323E-006
 chl           9   3.3116682434114456E-011   1.3003525907597598E-010  0.25467463724408240     
 chl2c          10   2.5387016219684602E-002   2.5387016219684602E-002  0.39094662499999999        5.6869701917187633E-006   5.2636313653945502E-016
 chl          10   3.2833228357334704E-012   1.2933078890884567E-010   2.5387016219684602E-002
 chl2c          11   2.1820572217820047E-002   2.1820572217820047E-002  0.49737575000000001        1.0032335897612777E-005   5.2731124891708346E-016
 chl          11   2.8220718193729033E-012   1.2933078890883634E-010   2.1820572217820047E-002
 chl2c          12   4.5290941298723353E-002   4.5290941298723353E-002  0.30768942500000002        5.0717027893855820E-006   2.7492252425929416E-019
 chl          12   5.8575131685766610E-012   1.2933078890859286E-010   4.5290941298723353E-002
 chl2c          13  0.40490224359769744        3.7935816987997487E-002  0.75666275000000005        1.0032335897612777E-005   4.3689545698904907E-006
 chl          13   3.5711927108817017E-010   8.8198886702884396E-010  0.40490224359769744     
 chl2c          14   4.6856526101924839E-002   4.6856526101924839E-002  0.39804095000000000        5.0717027893855820E-006   3.5941949851079938E-018
 chl          14   6.0599914862780611E-012   1.2933078890859390E-010   4.6856526101924839E-002
 chl2c          15   2.0954299823745293E-002   2.0954299823745293E-002  0.25607262500000000        1.0032335897612777E-005   5.3000263777459938E-016
 chl          15   2.7100361272377148E-012   1.2933078890885761E-010   2.0954299823745293E-002
 chl2c          16  0.47806223131948983        3.7823443882273475E-002  0.71433214999999994        1.0032335897612777E-005   7.2501713061363473E-006
 chl          16   4.2195480900876321E-010   8.8263573519316579E-010  0.47806223131948983     
 chl2c          17   3.7542254757581245E-002   3.7542254757581245E-002  0.62580860000000005        1.0032335897612777E-005   7.3620574408952658E-016
 chl          17   3.3078932633055386E-011   8.8111203886536572E-010   3.7542254757581245E-002
 chl2c          18   2.5694475239060960E-002   2.5694475239060960E-002  0.47925950000000000        5.6869701917187633E-006   5.2844859051575676E-016
 chl          18   3.3230867532663317E-012   1.2933078890883698E-010   2.5694475239060960E-002
 chl2c          19  0.49177207926145372        3.7570220750293731E-002  0.63367130000000005        1.0032335897612777E-005   1.1015899466348839E-005
 chl          19   4.3431775322934523E-010   8.8316879209898667E-010  0.49177207926145372     
 chl2c          20  0.21213085630706216        3.7020645196759419E-002  0.50678202500000002        1.0032335897612777E-005   1.8301595336560496E-006
 chl          20   1.8697369073530977E-010   8.8140732560218835E-010  0.21213085630706216     
 chl2c          21  0.56882438774999933        3.7838475073783531E-002  0.71973185000000006        1.0032335897612777E-005   1.3608500791543731E-005
 chl          21   5.0257075283595459E-010   8.8352532637337718E-010  0.56882438774999933     
 chl2c          22  0.41002666998637816        3.7613353106285476E-002  0.64616892500000001        1.0032335897612777E-005   5.6280317306350823E-006
 chl          22   3.6195227671306766E-010   8.8275300903010131E-010  0.41002666998637816     
 chl2c          23   3.2286562315070731E-002   3.2286562315070731E-002  0.41564179999999995        6.8694485295352376E-006   4.8113986492911390E-009
 chl          23   4.1757095378095690E-012   1.2933273902190666E-010   3.2286562315070731E-002
 chl2c          24   3.7348402796863071E-002   3.7348402796863071E-002  0.57597492500000003        1.0032335897612777E-005   8.7090050032935093E-016
 chl          24   3.2908127336705410E-011   8.8111203886527101E-010   3.7348402796863071E-002
 chl2c          25   4.5426679235459781E-002   4.5426679235459781E-002  0.31406487500000002        5.0717027893855820E-006   3.5480443766737733E-009
 chl          25   5.8751323924083468E-012   1.2933220062060480E-010   4.5426679235459781E-002
 chl2c          26   4.7955660680174553E-002   4.7955660680174553E-002  0.49427735000000000        5.0717027893855820E-006   2.6422623855933682E-019
 chl          26   6.2021434283997309E-012   1.2933078890859222E-010   4.7955660680174553E-002
 chl2c          27   4.5333133499525620E-002   4.5333133499525620E-002  0.30964730000000001        5.0717027893855820E-006   3.5630914138868014E-018
 chl          27   5.8629699191922534E-012   1.2933078890859387E-010   4.5333133499525620E-002
 chl2c          28   3.1209236063453518E-002   3.1209236063453518E-002  0.28776342500000002        6.8694485295352376E-006   3.5409531410348927E-018
 chl          28   4.0363151213209821E-012   1.2933078890859387E-010   3.1209236063453518E-002
 chl2c          29   3.7743217595736761E-002   3.7743217595736761E-002  0.68676297499999994        1.0032335897612777E-005   8.8540745231770173E-016
 chl          29   3.3256006036092002E-011   8.8111210846656572E-010   3.7743217595736761E-002
 chl2c          30   2.5380056985171612E-002   2.5380056985171612E-002  0.38930277499999999        5.6869701917187633E-006   5.3074251405908750E-016
 chl          30   3.2824227924435157E-012   1.2933078890883825E-010   2.5380056985171612E-002
 chl2c          31   3.7576959810037038E-002   3.7576959810037038E-002  0.63559385000000002        1.0032335897612777E-005   8.9084687667440760E-016
 chl          31   3.3109511672580612E-011   8.8111203886528507E-010   3.7576959810037038E-002
 chl2c          32   2.0893126428578448E-002   2.0893126428578448E-002  0.24722667500000001        1.0032335897612777E-005   5.3112325855661129E-016
 chl          32   2.7058726986374110E-012   1.2951018641883155E-010   2.0893126428578448E-002
 chl2c          33  0.48811828303694044        3.7458922634011876E-002  0.60343137499999999        1.0032335897612777E-005   1.2812869823737280E-005
 chl          33   4.3112815073255282E-010   8.8324524139966572E-010  0.48811828303694044     
 chl2c          34   2.5350269098008315E-002   2.5350269098008315E-002  0.38241020000000003        5.6869701917187633E-006   5.1965659795057198E-016
 chl          34   3.2785703014966028E-012   1.2933078890883210E-010   2.5350269098008315E-002
 chl2c          35   2.5740370148566064E-002   2.5740370148566064E-002  0.49574644999999995        5.6869701917187633E-006   5.2169986855860253E-016
 chl          35   3.3290223781194294E-012   1.2933078890883321E-010   2.5740370148566064E-002
 chl2c          36   3.7770393924465726E-002   3.7770393924465726E-002  0.69587337500000002        1.0032335897612777E-005   7.3620574408952658E-016
 chl          36   3.3279948799534016E-011   8.8111203886536572E-010   3.7770393924465726E-002
 chl2c          37   2.1353674699533250E-002   2.1353674699533250E-002  0.33194060000000003        1.0032335897612777E-005   5.1877390546607306E-016
 chl          37   2.7616875949931928E-012   1.2933078890883161E-010   2.1353674699533250E-002
 chl2c          38   2.1543295686358745E-002   2.1543295686358745E-002  0.38455722500000000        1.0032335897612777E-005   5.3122994804977449E-016
 chl          38   2.7862114268131542E-012   1.2933078890883851E-010   2.1543295686358745E-002
 chl2c          39   2.5670077108751441E-002   2.5670077108751441E-002  0.47091117500000002        5.6869701917187633E-006   5.2560157661586601E-016
 chl          39   3.3199313238254600E-012   1.2933078890883538E-010   2.5670077108751441E-002
 chl2c          40  0.45672120485109968        3.7687445774703773E-002  0.66875547499999999        1.0032335897612777E-005   7.2257766855318142E-006
 chl          40   4.0309878376205302E-010   8.8259266151978071E-010  0.45672120485109968     
 chl2c          41  0.37821626390825697        2.5582381488167241E-002  0.44304987499999998        5.6869701917187633E-006   7.3492591765293365E-006
 chl          41   4.9272294785005776E-011   1.3027545213380259E-010  0.37821626390825697     
 chl2c          42  0.55031690992934768        3.7949995630725070E-002  0.76234377499999995        1.0032335897612777E-005   9.9253285781142721E-006
 chl          42   4.8596455553582565E-010   8.8306309831223640E-010  0.55031690992934768     
 chl2c          43  0.25011360278156736        2.1185090152268007E-002  0.29539925000000000        1.0032335897612777E-005   8.1838599799508880E-006
 chl          43   3.2632547768299239E-011   1.3047090364292719E-010  0.25011360278156736     
 chl2c          44  0.13465285244196887        3.7536352708156646E-002  0.62417262500000004        1.0032335897612777E-005   8.6123586219886891E-007
 chl          44   1.1866574603122193E-010   8.8127168403181896E-010  0.13465285244196887     
 chl2c          45   4.6544927192009838E-002   4.6544927192009838E-002  0.37662252499999999        5.0717027893855820E-006   3.5190257853485802E-019
 chl          45   6.0196921534356210E-012   1.2933078890859227E-010   4.6544927192009838E-002
 chl2c          46   3.7083195475449568E-002   3.7083195475449568E-002  0.51876034999999998        1.0032335897612777E-005   8.9077973850377906E-016
 chl          46   3.2674449973208498E-011   8.8111203887054925E-010   3.7083195475449568E-002
 chl2c          47   3.7519784612651236E-002   3.7519784612651236E-002  0.61962282499999999        1.0032335897612777E-005   8.9186192958274515E-016
 chl          47   3.3059133917839385E-011   8.8111203886528259E-010   3.7519784612651236E-002
 chl2c          48  0.47425863517382516        3.7823212136301673E-002  0.71424949999999998        1.0032335897612777E-005   7.0801514930449534E-006
 chl          48   4.1855053465328132E-010   8.8253645502917255E-010  0.47425863517382516     
 chl2c          49   3.7152990741888416E-002   3.7152990741888416E-002  0.53276120000000005        1.0032335897612777E-005   8.8328527816534852E-016
 chl          49   3.2735947422528097E-011   8.8111203886527794E-010   3.7152990741888416E-002
 chl2c          50  0.19687308382411747        2.1533072915600981E-002  0.38132569999999999        1.0032335897612777E-005   2.0415953590400840E-006
 chl          50   2.5631631884287922E-011   1.3019368308969404E-010  0.19687308382411747     
 chl2c          51   2.0700971146093840E-002   2.0700971146093840E-002  0.22275920000000002        1.0032335897612777E-005   5.3262461857877204E-016
 chl          51   2.6772729295034358E-012   1.2933078890883931E-010   2.0700971146093840E-002
 chl2c          52  0.39195604960178931        3.7581825176985564E-002  0.63698869999999996        1.0032335897612777E-005   5.1111333435132067E-006
 chl          52   3.4577070339041067E-010   8.8216702801678658E-010  0.39195604960178931     
 chl2c          53  0.52987371064398792        3.7925801262726190E-002  0.75269794999999995        1.0032335897612777E-005   8.9784784012515268E-006
 chl          53   4.6786702512211744E-010   8.8297836960714666E-010  0.52987371064398792     
 chl2c          54   3.7082433371327092E-002   3.7082433371327092E-002  0.51861124999999997        1.0032335897612777E-005   8.7172782959542200E-016
 chl          54   3.2673778473895597E-011   8.8111203886527153E-010   3.7082433371327092E-002
 chl2c          55  0.38262204683931517        3.7357235588660491E-002  0.57808280000000001        1.0032335897612777E-005   5.6763940927724184E-006
 chl          55   3.3775127920646771E-010   8.8272822226657718E-010  0.38262204683931517     
 chl2c          56   3.7507394187257688E-002   3.7507394187257688E-002  0.61626080000000005        1.0032335897612777E-005   7.3620574408952658E-016
 chl          56   3.3048216564861590E-011   8.8111203886536572E-010   3.7507394187257688E-002
 chl2c          57   3.7727617852646313E-002   3.7727617852646313E-002  0.68163462500000005        1.0032335897612777E-005   8.9577426470228940E-016
 chl          57   3.3242258287675508E-011   8.8111203886528466E-010   3.7727617852646313E-002
 chl2c          58  0.52998773736498395        3.7765358178394853E-002  0.69416802499999997        1.0032335897612777E-005   1.1240392670150286E-005
 chl          58   4.6813179348168181E-010   8.8328797154658663E-010  0.52998773736498395     
 chl2c          59  0.44954675118147985        3.7173699120809672E-002  0.53705127500000005        1.0032335897612777E-005   1.3839875345177645E-005
 chl          59   3.9700705778841154E-010   8.8312740942964064E-010  0.44954675118147985     
 chl2c          60  0.51899483795737444        3.7607757740906807E-002  0.64452155000000000        1.0032335897612777E-005   1.3367075364801210E-005
 chl          60   4.5845463192173811E-010   8.8335104396431668E-010  0.51899483795737444     
 chl2c          61   3.7805373434125003E-002   3.7805373434125003E-002  0.70794139999999994        1.0032335897612777E-005   8.8657206528490762E-016
 chl          61   3.3310769666605162E-011   8.8111203886527969E-010   3.7805373434125003E-002
 chl2c          62  0.49936868302657322        3.7956103087269030E-002  0.76481592499999995        1.0032335897612777E-005   7.2172554428899566E-006
 chl          62   4.4074456927786089E-010   8.8260354375167589E-010  0.49936868302657322     
 chl2c          63  0.53256953011197705        3.7855601011927406E-002  0.72597904999999996        1.0032335897612777E-005   1.0027545141978207E-005
 chl          63   4.7040180133578461E-010   8.8326833350169107E-010  0.53256953011197705     
 chl2c          64   2.5708982294816416E-002   2.5708982294816416E-002  0.48435739999999999        5.6869701917187633E-006   5.1394758245985866E-016
 chl          64   3.3249629622317226E-012   1.2933078890882895E-010   2.5708982294816416E-002
 chl2c          65  0.57101002445712812        3.7953597170552002E-002  0.76379975000000000        1.0032335897612777E-005   1.1347793609036920E-005
 chl          65   5.0443073254928424E-010   8.8340083526354498E-010  0.57101002445712812     
 chl2c          66   3.1840477731474713E-002   3.1840477731474713E-002  0.35213202499999996        6.8694485295352376E-006   2.8940635792748225E-019
 chl          66   4.1179541042380883E-012   1.2933078890859224E-010   3.1840477731474713E-002
 chl2c          67   3.7937587124568600E-002   3.7937587124568600E-002  0.75736760000000003        1.0032335897612777E-005   8.8282292350273656E-016
 chl          67   3.3427264740957747E-011   8.8111203886527763E-010   3.7937587124568600E-002
 chl2c          68  0.54914533832723744        3.7855407263856986E-002  0.72590779999999999        1.0032335897612777E-005   1.1312296822528112E-005
 chl          68   4.8508487706697116E-010   8.8334516058098178E-010  0.54914533832723744     
 chl2c          69   2.1732330561541505E-002   2.1732330561541505E-002  0.45524217500000003        1.0032335897612777E-005   5.2064680821133538E-016
 chl          69   2.8106594563520372E-012   1.2933078890884831E-010   2.1732330561541505E-002
 chl2c          70   3.2658010878182209E-002   3.2658010878182209E-002  0.48694062500000002        6.8694485295352376E-006   4.3776856727605448E-018
 chl          70   4.2236863110607591E-012   1.2933078890859428E-010   3.2658010878182209E-002
 chl2c          71   4.3481058864416305E-002   4.3481058864416305E-002  0.23986107500000001        5.0717027893855820E-006   4.9931174937759364E-009
 chl          71   5.6235447997648206E-012   1.2933320730068453E-010   4.3481058864416305E-002
 chl2c          72  0.33756146082533489        3.7549776402781669E-002  0.62790522500000001        1.0032335897612777E-005   3.6619003394668690E-006
 chl          72   2.9767639708921030E-010   8.8184355039048014E-010  0.33756146082533489     
 chl2c          73   3.1852614277819484E-002   3.1852614277819484E-002  0.35362212500000001        6.8694485295352376E-006   3.6343651634782081E-019
 chl          73   4.1195237333514836E-012   1.2933078890859227E-010   3.1852614277819484E-002
 chl2c          74  0.52270730733211601        3.7616827685877569E-002  0.64719590000000005        1.0032335897612777E-005   1.3631286330397283E-005
 chl          74   4.6174761105683959E-010   8.8337699622679266E-010  0.52270730733211601     
 chl2c          75   3.7826830779512356E-002   3.7826830779512356E-002  0.71554212500000003        1.0032335897612777E-005   7.3620574408952658E-016
 chl          75   3.3329675991951303E-011   8.8111203886536572E-010   3.7826830779512356E-002
 chl2c          76  0.12055235158365858        3.7257729557919804E-002  0.55513977500000000        1.0032335897612777E-005   7.7245456902959678E-007
 chl          76   1.0629908854645718E-010   8.8176702610972962E-010  0.12055235158365858     
 chl2c          77  0.44195485344465302        3.7138172437479272E-002  0.52973029999999999        1.0032335897612777E-005   1.3379249223775259E-005
 chl          77   3.9028385004807104E-010   8.8308533554083291E-010  0.44195485344465302     
 chl2c          78   4.7515248899399322E-002   4.7515248899399322E-002  0.45117492500000000        5.0717027893855820E-006   4.5188216868146612E-018
 chl          78   6.1451846253475339E-012   1.2933078890859436E-010   4.7515248899399322E-002
 prod   1.3138686554189470E-009   7.0887210620291246        10.000000000000000     
 chl2c           1  0.50534425674205519        3.7477407714772232E-002  0.60826437499999997        7.6085451231199708E-006   1.1361902652686698E-005
 chl           1   7.7300216950081742E-014   1.5296546051286853E-013  0.50534425674205519     
 chl2c           2   3.2640259920490348E-002   3.2640259920490348E-002  0.48302390000000001        5.2355429074600693E-006   2.5084310703368651E-019
 chl           2   5.6971823727606166E-016   1.7454463863457582E-014   3.2640259920490348E-002
 chl2c           3   3.7922212503796585E-002   3.7922212503796585E-002  0.75128689999999998        7.6085451231199708E-006   7.6822511219702678E-016
 chl           3   5.7912620944567783E-015   1.5271424613943571E-013   3.7922212503796585E-002
 chl2c           4  0.57673637092997165        3.7976509103863923E-002  0.77318742499999993        7.6085451231199708E-006   8.6353388513536936E-006
 chl           4   8.8233631068797925E-014   1.5298780433514815E-013  0.57673637092997165     
 chl2c           5   2.5710500362372445E-002   2.5710500362372445E-002  0.48489679999999996        4.3579544545075690E-006   5.2702750119712005E-016
 chl           5   4.4876299948728377E-016   1.7454463863490288E-014   2.5710500362372445E-002
 chl2c           6   3.1261039902252048E-002   3.1261039902252048E-002  0.29222855000000003        5.2355429074600693E-006   5.1532782022541782E-008
 chl           6   5.4571579701792344E-016   1.7456738442620075E-014   3.1261039902252048E-002
 chl2c           7   4.3064391842467263E-002   4.3064391842467263E-002  0.22770740000000000        3.8940766458714906E-006   2.4477156008214595E-019
 chl           7   7.5166682570435065E-016   1.7454486027667675E-014   4.3064391842467263E-002
 chl2c           8   4.7969800906495587E-002   4.7969800906495587E-002  0.49578364999999996        3.8940766458714906E-006   3.6071103958672188E-009
 chl           8   8.3729960524788760E-016   1.7454723376483910E-014   4.7969800906495587E-002
 chl2c           9  0.25113723605496235        2.4803669054600401E-002  0.28700202499999999        4.3579544545075690E-006   4.3790558397545324E-006
 chl           9   4.4045788975345822E-015   1.7538533778282974E-014  0.25113723605496235     
 chl2c          10   2.5387016219684602E-002   2.5387016219684602E-002  0.39094662499999999        4.3579544545075690E-006   5.3171873964958337E-016
 chl          10   4.4311675720835924E-016   1.7454463863491569E-014   2.5387016219684602E-002
 chl2c          11   2.1820572217820047E-002   2.1820572217820047E-002  0.49737575000000001        7.6085451231199708E-006   5.3247047838247085E-016
 chl          11   3.8086638925663011E-016   1.7454463863490746E-014   2.1820572217820047E-002
 chl2c          12   4.5290941298723353E-002   4.5290941298723353E-002  0.30768942500000002        3.8940766458714906E-006   3.3517539649652869E-010
 chl          12   7.9052940401066603E-016   1.7454470614699925E-014   4.5290941298723353E-002
 chl2c          13  0.53767608597979710        3.7935816987997487E-002  0.75666275000000005        7.6085451231199708E-006   7.0676825172398858E-006
 chl          13   8.2188700233446846E-014   1.5285913280609442E-013  0.53767608597979710     
 chl2c          14   4.6856526101924839E-002   4.6856526101924839E-002  0.39804095000000000        3.8940766458714906E-006   3.4129388857643393E-018
 chl          14   8.1785554161321439E-016   1.7454463863457803E-014   4.6856526101924839E-002
 chl2c          15   2.0954299823745293E-002   2.0954299823745293E-002  0.25607262500000000        7.6085451231199708E-006   5.3460180423108043E-016
 chl          15   3.6574606905835374E-016   1.7454463863492702E-014   2.0954299823745293E-002
 chl2c          16  0.54944490112187938        3.7823443882273475E-002  0.71433214999999994        7.6085451231199708E-006   9.0554262383737781E-006
 chl          16   8.4022545405871707E-014   1.5292260467666729E-013  0.54944490112187938     
 chl2c          17   3.7542254757581245E-002   3.7542254757581245E-002  0.62580860000000005        7.6085451231199708E-006   7.6822511219702678E-016
 chl          17   5.7332371336786641E-015   1.5271424613943571E-013   3.7542254757581245E-002
 chl2c          18   2.5694475239060960E-002   2.5694475239060960E-002  0.47925950000000000        4.3579544545075690E-006   5.3337160898489116E-016
 chl          18   4.4848328955154928E-016   1.7454463863490825E-014   2.5694475239060960E-002
 chl2c          19  0.51437032687651707        3.7570220750293731E-002  0.63367130000000005        7.6085451231199708E-006   1.0393637919983993E-005
 chl          19   7.8682613106459507E-014   1.5296880281616350E-013  0.51437032687651707     
 chl2c          20  0.35450759244172675        3.7020645196759419E-002  0.50678202500000002        7.6085451231199708E-006   4.4883981893215364E-006
 chl          20   5.4163045634370108E-014   1.5278388048423341E-013  0.35450759244172675     
 chl2c          21  0.59574735718016358        3.7838475073783531E-002  0.71973185000000006        7.6085451231199708E-006   1.3156400976822442E-005
 chl          21   9.1157172640055186E-014   1.5301313810526530E-013  0.59574735718016358     
 chl2c          22  0.36154747843594631        3.7613353106285476E-002  0.64616892500000001        7.6085451231199708E-006   3.1225931937314834E-006
 chl          22   5.5280833626097116E-014   1.5290062003818114E-013  0.36154747843594631     
 chl2c          23   3.2286562315070731E-002   3.2286562315070731E-002  0.41564179999999995        5.2355429074600693E-006   4.9697546271755528E-009
 chl          23   5.6355353180240055E-016   1.7454739414587502E-014   3.2286562315070731E-002
 chl2c          24   3.7348402796863071E-002   3.7348402796863071E-002  0.57597492500000003        7.6085451231199708E-006   8.9022179297800432E-016
 chl          24   5.7036331776347136E-015   1.5271424613942976E-013   3.7348402796863071E-002
 chl2c          25   4.5426679235459781E-002   4.5426679235459781E-002  0.31406487500000002        3.8940766458714906E-006   3.7347499281503423E-009
 chl          25   7.9290751801319332E-016   1.7454666098380677E-014   4.5426679235459781E-002
 chl2c          26   4.7955660680174553E-002   4.7955660680174553E-002  0.49427735000000000        3.8940766458714906E-006   2.4751193991566213E-019
 chl          26   8.3704034639034035E-016   1.7454463863457582E-014   4.7955660680174553E-002
 chl2c          27   4.5333133499525620E-002   4.5333133499525620E-002  0.30964730000000001        3.8940766458714906E-006   3.3833959394500133E-018
 chl          27   7.9126554048477815E-016   1.7454463863457800E-014   4.5333133499525620E-002
 chl2c          28   3.1209236063453518E-002   3.1209236063453518E-002  0.28776342500000002        5.2355429074600693E-006   3.3623685410799369E-018
 chl          28   5.4474048307567338E-016   1.7454463863457800E-014   3.1209236063453518E-002
 chl2c          29   3.7743217595736761E-002   3.7743217595736761E-002  0.68676297499999994        7.6085451231199708E-006   9.0195028452560049E-016
 chl          29   5.7639272583947748E-015   1.5271425240241923E-013   3.7743217595736761E-002
 chl2c          30   2.5380056985171612E-002   2.5380056985171612E-002  0.38930277499999999        4.3579544545075690E-006   5.3518706857861963E-016
 chl          30   4.4299528750101966E-016   1.7454463863490976E-014   2.5380056985171612E-002
 chl2c          31   3.7576959810037038E-002   3.7576959810037038E-002  0.63559385000000002        7.6085451231199708E-006   9.0632765548159397E-016
 chl          31   5.7385370896015157E-015   1.5271424613943135E-013   3.7576959810037038E-002
 chl2c          32   2.0893126428578448E-002   2.0893126428578448E-002  0.24722667500000001        7.6085451231199708E-006   5.3548814562637803E-016
 chl          32   3.6501559527335048E-016   1.7470606733804455E-014   2.0893126428578448E-002
 chl2c          33  0.50337118407613413        3.7458922634011876E-002  0.60343137499999999        7.6085451231199708E-006   1.1548525438333273E-005
 chl          33   7.7003557426924097E-014   1.5297569639043429E-013  0.50337118407613413     
 chl2c          34   2.5350269098008315E-002   2.5350269098008315E-002  0.38241020000000003        4.3579544545075690E-006   5.2638651698816870E-016
 chl          34   4.4247535590093939E-016   1.7454463863490238E-014   2.5350269098008315E-002
 chl2c          35   2.5740370148566064E-002   2.5740370148566064E-002  0.49574644999999995        4.3579544545075690E-006   5.2801388977228067E-016
 chl          35   4.4928436059101260E-016   1.7454463863490370E-014   2.5740370148566064E-002
 chl2c          36   3.7770393924465726E-002   3.7770393924465726E-002  0.69587337500000002        7.6085451231199708E-006   7.6822511219702678E-016
 chl          36   5.7680772345643060E-015   1.5271424613943571E-013   3.7770393924465726E-002
 chl2c          37   2.1353674699533250E-002   2.1353674699533250E-002  0.33194060000000003        7.6085451231199708E-006   5.2568270853971562E-016
 chl          37   3.7271694339572762E-016   1.7454463863490178E-014   2.1353674699533250E-002
 chl2c          38   2.1543295686358745E-002   2.1543295686358745E-002  0.38455722500000000        7.6085451231199708E-006   5.3557249894945390E-016
 chl          38   3.7602667605805040E-016   1.7454463863491008E-014   2.1543295686358745E-002
 chl2c          39   2.5670077108751441E-002   2.5670077108751441E-002  0.47091117500000002        4.3579544545075690E-006   5.3111455294050805E-016
 chl          39   4.4805743326772002E-016   1.7454463863490629E-014   2.5670077108751441E-002
 chl2c          40  0.52185265495128175        3.7687445774703773E-002  0.66875547499999999        7.6085451231199708E-006   9.0376754179029320E-006
 chl          40   7.9799555317098907E-014   1.5291587493130355E-013  0.52185265495128175     
 chl2c          41  0.39311932909852099        2.5582381488167241E-002  0.44304987499999998        4.3579544545075690E-006   7.6008715522961215E-006
 chl          41   6.9079856815070553E-015   1.7572236138446962E-014  0.39311932909852099     
 chl2c          42  0.60828661859181210        3.7949995630725070E-002  0.76234377499999995        7.6085451231199708E-006   1.1451143805203159E-005
 chl          42   9.3050146061632217E-014   1.5297089105304334E-013  0.60828661859181210     
 chl2c          43  0.25806972709629195        2.1185090152268007E-002  0.29539925000000000        7.6085451231199708E-006   7.7690092122209041E-006
 chl          43   4.5405033660764170E-015   1.7594095274810158E-014  0.25806972709629195     
 chl2c          44  0.36410627499484138        3.7536352708156646E-002  0.62417262500000004        7.6085451231199708E-006   3.3244541183095832E-006
 chl          44   5.5623943632890846E-014   1.5276842903539336E-013  0.36410627499484138     
 chl2c          45   4.6544927192009838E-002   4.6544927192009838E-002  0.37662252499999999        3.8940766458714906E-006   3.2964541018793383E-019
 chl          45   8.1241674970020021E-016   1.7454463863457589E-014   4.6544927192009838E-002
 chl2c          46   3.7083195475449568E-002   3.7083195475449568E-002  0.51876034999999998        7.6085451231199708E-006   9.0627369274823831E-016
 chl          46   5.6631322414920190E-015   1.5271424613990507E-013   3.7083195475449568E-002
 chl2c          47   3.7519784612651236E-002   3.7519784612651236E-002  0.61962282499999999        7.6085451231199708E-006   9.0714330861147601E-016
 chl          47   5.7298056224348617E-015   1.5271424613943115E-013   3.7519784612651236E-002
 chl2c          48  0.55423093897803322        3.7823212136301673E-002  0.71424949999999998        7.6085451231199708E-006   9.4111343899605893E-006
 chl          48   8.4750090246537424E-014   1.5291475860732573E-013  0.55423093897803322     
 chl2c          49   3.7152990741888416E-002   3.7152990741888416E-002  0.53276120000000005        7.6085451231199708E-006   9.0023948934107248E-016
 chl          49   5.6737909729727332E-015   1.5271424613943059E-013   3.7152990741888416E-002
 chl2c          50   2.1533072915600981E-002   2.1533072915600981E-002  0.38132569999999999        7.6085451231199708E-006   5.2958488793882215E-016
 chl          50   3.7752021083294904E-016   1.7532110364026628E-014   2.1533072915600981E-002
 chl2c          51   2.0700971146093840E-002   2.0700971146093840E-002  0.22275920000000002        7.6085451231199708E-006   5.3667470742059784E-016
 chl          51   3.6132435280866695E-016   1.7454463863491102E-014   2.0700971146093840E-002
 chl2c          52  0.47927911275437840        3.7581825176985564E-002  0.63698869999999996        7.6085451231199708E-006   7.3643388057311732E-006
 chl          52   7.3267565620725543E-014   1.5287034980444434E-013  0.47927911275437840     
 chl2c          53  0.58795651166401608        3.7925801262726190E-002  0.75269794999999995        7.6085451231199708E-006   1.0219619099097371E-005
 chl          53   8.9933419325945460E-014   1.5295930488365324E-013  0.58795651166401608     
 chl2c          54   3.7082433371327092E-002   3.7082433371327092E-002  0.51861124999999997        7.6085451231199708E-006   8.9089279989549255E-016
 chl          54   5.6630158573178511E-015   1.5271424613942981E-013   3.7082433371327092E-002
 chl2c          55  0.31221929357867795        3.7357235588660491E-002  0.57808280000000001        7.6085451231199708E-006   2.5826329119263120E-006
 chl          55   4.7736002555645381E-014   1.5289254551982423E-013  0.31221929357867795     
 chl2c          56   3.7507394187257688E-002   3.7507394187257688E-002  0.61626080000000005        7.6085451231199708E-006   7.6822511219702678E-016
 chl          56   5.7279134279617110E-015   1.5271424613943571E-013   3.7507394187257688E-002
 chl2c          57   3.7727617852646313E-002   3.7727617852646313E-002  0.68163462500000005        7.6085451231199708E-006   9.1028355886380307E-016
 chl          57   5.7615447190034353E-015   1.5271424613943140E-013   3.7727617852646313E-002
 chl2c          58  0.55889233784037617        3.7765358178394853E-002  0.69416802499999997        7.6085451231199708E-006   1.0910499583958501E-005
 chl          58   8.5502178313274614E-014   1.5298506085029686E-013  0.55889233784037617     
 chl2c          59  0.46639273850692736        3.7173699120809672E-002  0.53705127500000005        7.6085451231199708E-006   1.3485731822292336E-005
 chl          59   7.1340455881128250E-014   1.5296219257081899E-013  0.46639273850692736     
 chl2c          60  0.54160122267403654        3.7607757740906807E-002  0.64452155000000000        7.6085451231199708E-006   1.2902906348796380E-005
 chl          60   8.2860082821803381E-014   1.5299094491090697E-013  0.54160122267403654     
 chl2c          61   3.7805373434125003E-002   3.7805373434125003E-002  0.70794139999999994        7.6085451231199708E-006   9.0288842769416002E-016
 chl          61   5.7734191040120637E-015   1.5271424613943079E-013   3.7805373434125003E-002
 chl2c          62  0.58515842386306383        3.7956103087269030E-002  0.76481592499999995        7.6085451231199708E-006   9.4766895541064909E-006
 chl          62   8.9484793739620677E-014   1.5292404601964939E-013  0.58515842386306383     
 chl2c          63  0.55006736879096485        3.7855601011927406E-002  0.72597904999999996        7.6085451231199708E-006   8.6360851609177955E-006
 chl          63   8.4148664798875186E-014   1.5297883418140576E-013  0.55006736879096485     
 chl2c          64   2.5708982294816416E-002   2.5708982294816416E-002  0.48435739999999999        4.3579544545075690E-006   5.2182594828205085E-016
 chl          64   4.4873650243197367E-016   1.7454463863489856E-014   2.5708982294816416E-002
 chl2c          65  0.60824391487202323        3.7953597170552002E-002  0.76379975000000000        7.6085451231199708E-006   1.1361681295369660E-005
 chl          65   9.3062020128367825E-014   1.5300115274963074E-013  0.60824391487202323     
 chl2c          66   3.1840477731474713E-002   3.1840477731474713E-002  0.35213202499999996        5.2355429074600693E-006   2.7110001104587359E-019
 chl          66   5.5575846795925141E-016   1.7454463863457589E-014   3.1840477731474713E-002
 chl2c          67   3.7937587124568600E-002   3.7937587124568600E-002  0.75736760000000003        7.6085451231199708E-006   8.9986653842226616E-016
 chl          67   5.7936100180774599E-015   1.5271424613943054E-013   3.7937587124568600E-002
 chl2c          68  0.58146437242638604        3.7855407263856986E-002  0.72590779999999999        7.6085451231199708E-006   1.1116764668620519E-005
 chl          68   8.8959936871532701E-014   1.5299292801089909E-013  0.58146437242638604     
 chl2c          69   2.1732330561541505E-002   2.1732330561541505E-002  0.45524217500000003        7.6085451231199708E-006   5.2717548939866547E-016
 chl          69   3.7932617845588272E-016   1.7454463863491711E-014   2.1732330561541505E-002
 chl2c          70   3.2658010878182209E-002   3.2658010878182209E-002  0.48694062500000002        5.2355429074600693E-006   4.1571635135335311E-018
 chl          70   5.7002807072564481E-016   1.7454463863457854E-014   3.2658010878182209E-002
 chl2c          71   4.3481058864416305E-002   4.3481058864416305E-002  0.23986107500000001        3.8940766458714906E-006   4.4837004052960068E-009
 chl          71   7.5895195851174002E-016   1.7454771763455037E-014   4.3481058864416305E-002
 chl2c          72  0.45026427826741428        3.7549776402781669E-002  0.62790522500000001        7.6085451231199708E-006   6.0546652429271061E-006
 chl          72   6.8816440132080421E-014   1.5283566441664284E-013  0.45026427826741428     
 chl2c          73   3.1852614277819484E-002   3.1852614277819484E-002  0.35362212500000001        5.2355429074600693E-006   3.4045029929507654E-019
 chl          73   5.5597030486885344E-016   1.7454463863457589E-014   3.1852614277819484E-002
 chl2c          74  0.54495747701349662        3.7616827685877569E-002  0.64719590000000005        7.6085451231199708E-006   1.3123686759920936E-005
 chl          74   8.3375155242277096E-014   1.5299387339209256E-013  0.54495747701349662     
 chl2c          75   3.7826830779512356E-002   3.7826830779512356E-002  0.71554212500000003        7.6085451231199708E-006   7.6822511219702678E-016
 chl          75   5.7766959463372329E-015   1.5271424613943571E-013   3.7826830779512356E-002
 chl2c          76   3.7257729557919804E-002   3.7257729557919804E-002  0.55513977500000000        7.6085451231199708E-006   7.6822511219702678E-016
 chl          76   5.6919819874448490E-015   1.5277318438302196E-013   3.7257729557919804E-002
 chl2c          77  0.45907858474561591        3.7138172437479272E-002  0.52973029999999999        7.6085451231199708E-006   1.3094555596704332E-005
 chl          77   7.0219395712856522E-014   1.5295724533037499E-013  0.45907858474561591     
 chl2c          78   4.7515248899399322E-002   4.7515248899399322E-002  0.45117492500000000        3.8940766458714906E-006   4.2912355756409228E-018
 chl          78   8.2935319487777150E-016   1.7454463863457863E-014   4.7515248899399322E-002
 prod   1.2307192311465957E-009   5.3663060214086746        10.000000000000000     
 chl2c           1  0.60826437499999997        3.7477407714772232E-002  0.60826437499999997        0.0000000000000000        1.1341186231960265E-005
 chl           1   1.2394961093410819E-017   2.0377588434980792E-017  0.60826437499999997     
 chl2c           2  0.48302390000000001        3.2640259920490348E-002  0.48302390000000001        0.0000000000000000        2.2723698482644348E-019
 chl           2   1.0139327322881676E-018   2.0991357410847942E-018  0.48302390000000001     
 chl2c           3  0.75128689999999998        3.7922212503796585E-002  0.75128689999999998        0.0000000000000000        7.9600931977512387E-016
 chl           3   1.5292431580643302E-017   2.0354982338495857E-017  0.75128689999999998     
 chl2c           4  0.77318742499999993        3.7976509103863923E-002  0.77318742499999993        0.0000000000000000        6.9035528218647564E-006
 chl           4   1.5757249746504166E-017   2.0379599094623361E-017  0.77318742499999993     
 chl2c           5  0.48489679999999996        2.5710500362372445E-002  0.48489679999999996        0.0000000000000000        5.3109708355299552E-016
 chl           5   1.0178642036190723E-018   2.0991357410877374E-018  0.48489679999999996     
 chl2c           6  0.29222855000000003        3.1261039902252048E-002  0.29222855000000003        0.0000000000000000        5.4633807624405967E-008
 chl           6   6.1348720813834814E-019   2.0993404242615858E-018  0.29222855000000003     
 chl2c           7  0.22770740000000000        4.3064391842467263E-002  0.22770740000000000        0.0000000000000000        2.2173658368847459E-019
 chl           7   4.7798919601117954E-019   2.0991377355816259E-018  0.22770740000000000     
 chl2c           8  0.49578364999999996        4.7969800906495587E-002  0.49578364999999996        0.0000000000000000        2.7981616402580531E-009
 chl           8   1.0407287575314178E-018   2.0991590939544254E-018  0.49578364999999996     
 chl2c           9  0.28700202499999999        2.4803669054600401E-002  0.28700202499999999        0.0000000000000000        2.2942078290222604E-006
 chl           9   6.0462744259064647E-019   2.1067009634884859E-018  0.28700202499999999     
 chl2c          10  0.39094662499999999        2.5387016219684602E-002  0.39094662499999999        0.0000000000000000        5.3502326722069459E-016
 chl          10   8.2065003339516989E-019   2.0991357410878529E-018  0.39094662499999999     
 chl2c          11  0.49737575000000001        2.1820572217820047E-002  0.49737575000000001        0.0000000000000000        5.3565143934807221E-016
 chl          11   1.0440592135753399E-018   2.0991357410877790E-018  0.49737575000000001     
 chl2c          12  0.30768942500000002        4.5290941298723353E-002  0.30768942500000002        0.0000000000000000        1.0731639671420676E-009
 chl          12   6.4588205610062096E-019   2.0991363486106841E-018  0.30768942500000002     
 chl2c          13  0.75666275000000005        3.7935816987997487E-002  0.75666275000000005        0.0000000000000000        9.0002745795429357E-006
 chl          13   1.5411722248144716E-017   2.0368020294569430E-017  0.75666275000000005     
 chl2c          14  0.39804095000000000        4.6856526101924839E-002  0.39804095000000000        0.0000000000000000        3.2237124900351742E-018
 chl          14   8.3554198456035351E-019   2.0991357410848142E-018  0.39804095000000000     
 chl2c          15  0.25607262500000000        2.0954299823745293E-002  0.25607262500000000        0.0000000000000000        5.3743105572422238E-016
 chl          15   5.3753119945171285E-019   2.0991357410879546E-018  0.25607262500000000     
 chl2c          16  0.71433214999999994        3.7823443882273475E-002  0.71433214999999994        0.0000000000000000        1.0124430222019451E-005
 chl          16   1.4553611751035310E-017   2.0373731955135032E-017  0.71433214999999994     
 chl2c          17  0.62580860000000005        3.7542254757581245E-002  0.62580860000000005        0.0000000000000000        7.9600931977512387E-016
 chl          17   1.2738323000278820E-017   2.0354982338495857E-017  0.62580860000000005     
 chl2c          18  0.47925950000000000        2.5694475239060960E-002  0.47925950000000000        0.0000000000000000        5.3640410962128114E-016
 chl          18   1.0060307457058618E-018   2.0991357410877859E-018  0.47925950000000000     
 chl2c          19  0.63367130000000005        3.7570220750293731E-002  0.63367130000000005        0.0000000000000000        9.4067543423998928E-006
 chl          19   1.2912883540455793E-017   2.0377889199740925E-017  0.63367130000000005     
 chl2c          20  0.50678202500000002        3.7020645196759419E-002  0.50678202500000002        0.0000000000000000        6.7701493471040844E-006
 chl          20   1.0318714768308907E-017   2.0361248543313879E-017  0.50678202500000002     
 chl2c          21  0.71973185000000006        3.7838475073783531E-002  0.71973185000000006        0.0000000000000000        1.2501461615476015E-005
 chl          21   1.4669487343490526E-017   2.0381878811519215E-017  0.71973185000000006     
 chl2c          22  0.64616892500000001        3.7613353106285476E-002  0.64616892500000001        0.0000000000000000        1.0639636590511600E-006
 chl          22   1.3163594135360709E-017   2.0371753617462660E-017  0.64616892500000001     
 chl2c          23  0.41564179999999995        3.2286562315070731E-002  0.41564179999999995        0.0000000000000000        4.5483554968386601E-009
 chl          23   8.7249886416231106E-019   2.0991605371796369E-018  0.41564179999999995     
 chl2c          24  0.57597492500000003        3.7348402796863071E-002  0.57597492500000003        0.0000000000000000        9.0238548803127088E-016
 chl          24   1.1723959425791167E-017   2.0354982338495320E-017  0.57597492500000003     
 chl2c          25  0.31406487500000002        4.5426679235459781E-002  0.31406487500000002        0.0000000000000000        3.4476247360978604E-009
 chl          25   6.5927051966322077E-019   2.0991539396540945E-018  0.31406487500000002     
 chl2c          26  0.49427735000000000        4.7955660680174553E-002  0.49427735000000000        0.0000000000000000        2.2421917665821802E-019
 chl          26   1.0375552513936783E-018   2.0991357410847942E-018  0.49427735000000000     
 chl2c          27  0.30964730000000001        4.5333133499525620E-002  0.30964730000000001        0.0000000000000000        3.1958002352234830E-018
 chl          27   6.4999171456041179E-019   2.0991357410848142E-018  0.30964730000000001     
 chl2c          28  0.28776342500000002        3.1209236063453518E-002  0.28776342500000002        0.0000000000000000        3.1759335703392136E-018
 chl          28   6.0405449039447938E-019   2.0991357410848142E-018  0.28776342500000002     
 chl2c          29  0.68676297499999994        3.7743217595736761E-002  0.68676297499999994        0.0000000000000000        9.1230637730055692E-016
 chl          29   1.3979048613909799E-017   2.0354982902084668E-017  0.68676297499999994     
 chl2c          30  0.38930277499999999        2.5380056985171612E-002  0.38930277499999999        0.0000000000000000        5.3791939957248707E-016
 chl          30   8.1719936910716184E-019   2.0991357410877994E-018  0.38930277499999999     
 chl2c          31  0.63559385000000002        3.7576959810037038E-002  0.63559385000000002        0.0000000000000000        9.1599837488643538E-016
 chl          31   1.2937501591206334E-017   2.0354982338495462E-017  0.63559385000000002     
 chl2c          32  0.24722667500000001        2.0893126428578448E-002  0.24722667500000001        0.0000000000000000        5.3817056334885321E-016
 chl          32   5.1932148418502250E-019   2.1005883939709276E-018  0.24722667500000001     
 chl2c          33  0.60343137499999999        3.7458922634011876E-002  0.60343137499999999        0.0000000000000000        9.8840456925757239E-006
 chl          33   1.2297032028366980E-017   2.0378509533693008E-017  0.60343137499999999     
 chl2c          34  0.38241020000000003        2.5350269098008315E-002  0.38241020000000003        0.0000000000000000        5.3055979388876224E-016
 chl          34   8.0273091857650819E-019   2.0991357410877327E-018  0.38241020000000003     
 chl2c          35  0.49574644999999995        2.5740370148566064E-002  0.49574644999999995        0.0000000000000000        5.3192350025784178E-016
 chl          35   1.0406390917123686E-018   2.0991357410877451E-018  0.49574644999999995     
 chl2c          36  0.69587337500000002        3.7770393924465726E-002  0.69587337500000002        0.0000000000000000        7.9600931977512387E-016
 chl          36   1.4164490257954506E-017   2.0354982338495857E-017  0.69587337500000002     
 chl2c          37  0.33194060000000003        2.1353674699533250E-002  0.33194060000000003        0.0000000000000000        5.2996960570024726E-016
 chl          37   6.9678837737810490E-019   2.0991357410877273E-018  0.33194060000000003     
 chl2c          38  0.38455722500000000        2.1543295686358745E-002  0.38455722500000000        0.0000000000000000        5.3824092585455692E-016
 chl          38   8.0723781549104370E-019   2.0991357410878021E-018  0.38455722500000000     
 chl2c          39  0.47091117500000002        2.5670077108751441E-002  0.47091117500000002        0.0000000000000000        5.3451820392207195E-016
 chl          39   9.8850647832013680E-019   2.0991357410877682E-018  0.47091117500000002     
 chl2c          40  0.66875547499999999        3.7687445774703773E-002  0.66875547499999999        0.0000000000000000        1.0112752929631642E-005
 chl          40   1.3624639798590945E-017   2.0373126363699594E-017  0.66875547499999999     
 chl2c          41  0.44304987499999998        2.5582381488167241E-002  0.44304987499999998        0.0000000000000000        7.4994983957854504E-006
 chl          41   9.3471727288463856E-019   2.1097337469842161E-018  0.44304987499999998     
 chl2c          42  0.76234377499999995        3.7949995630725070E-002  0.76234377499999995        0.0000000000000000        1.2108565079654405E-005
 chl          42   1.5535100234696686E-017   2.0378077114483798E-017  0.76234377499999995     
 chl2c          43  0.29539925000000000        2.1185090152268007E-002  0.29539925000000000        0.0000000000000000        7.1251572374411735E-006
 chl          43   6.2379482990434333E-019   2.1117007910627509E-018  0.29539925000000000     
 chl2c          44  0.62417262500000004        3.7536352708156646E-002  0.62417262500000004        0.0000000000000000        5.6262824963081631E-006
 chl          44   1.2708066080874014E-017   2.0359858109563863E-017  0.62417262500000004     
 chl2c          45  0.37662252499999999        4.6544927192009838E-002  0.37662252499999999        0.0000000000000000        2.9862745019529188E-019
 chl          45   7.9058180312510168E-019   2.0991357410847949E-018  0.37662252499999999     
 chl2c          46  0.51876034999999998        3.7083195475449568E-002  0.51876034999999998        0.0000000000000000        9.1595289641011480E-016
 chl          46   1.0559357762183839E-017   2.0354982338538092E-017  0.51876034999999998     
 chl2c          47  0.61962282499999999        3.7519784612651236E-002  0.61962282499999999        0.0000000000000000        9.1668568077032494E-016
 chl          47   1.2612411659403652E-017   2.0354982338495444E-017  0.61962282499999999     
 chl2c          48  0.71424949999999998        3.7823212136301673E-002  0.71424949999999998        0.0000000000000000        1.0788989923493689E-005
 chl          48   1.4551423568810791E-017   2.0373025908748682E-017  0.71424949999999998     
 chl2c          49  0.53276120000000005        3.7152990741888416E-002  0.53276120000000005        0.0000000000000000        9.1086186721673586E-016
 chl          49   1.0844344816635613E-017   2.0354982338495394E-017  0.53276120000000005     
 chl2c          50  0.38132569999999999        2.1533072915600981E-002  0.38132569999999999        0.0000000000000000        5.3323872632934589E-016
 chl          50   8.0311880360141465E-019   2.1061229379541287E-018  0.38132569999999999     
 chl2c          51  0.22275920000000002        2.0700971146093840E-002  0.22275920000000002        0.0000000000000000        5.3916006854924876E-016
 chl          51   4.6760179837612785E-019   2.0991357410878105E-018  0.22275920000000002     
 chl2c          52  0.63698869999999996        3.7581825176985564E-002  0.63698869999999996        0.0000000000000000        8.9257156749306324E-006
 chl          52   1.2974841737185719E-017   2.0369029681665814E-017  0.63698869999999996     
 chl2c          53  0.75269794999999995        3.7925801262726190E-002  0.75269794999999995        0.0000000000000000        1.0837506439293157E-005
 chl          53   1.5337752100266419E-017   2.0377034506692118E-017  0.75269794999999995     
 chl2c          54  0.51861124999999997        3.7082433371327092E-002  0.51861124999999997        0.0000000000000000        9.0295421618635395E-016
 chl          54   1.0556322834294982E-017   2.0354982338495324E-017  0.51861124999999997     
 chl2c          55  0.57808280000000001        3.7357235588660491E-002  0.57808280000000001        0.0000000000000000        3.2929547440537081E-007
 chl          55   1.1776140334881525E-017   2.0371027013572319E-017  0.57808280000000001     
 chl2c          56  0.61626080000000005        3.7507394187257688E-002  0.61626080000000005        0.0000000000000000        7.9600931977512387E-016
 chl          56   1.2543977699907328E-017   2.0354982338495857E-017  0.61626080000000005     
 chl2c          57  0.68163462500000005        3.7727617852646313E-002  0.68163462500000005        0.0000000000000000        9.1932993304887907E-016
 chl          57   1.3874660753181982E-017   2.0354982338495468E-017  0.68163462500000005     
 chl2c          58  0.69416802499999997        3.7765358178394853E-002  0.69416802499999997        0.0000000000000000        1.0286847913050754E-005
 chl          58   1.4146694678492200E-017   2.0379352215902195E-017  0.69416802499999997     
 chl2c          59  0.53705127500000005        3.7173699120809672E-002  0.53705127500000005        0.0000000000000000        1.3117704069858985E-005
 chl          59   1.0943651918047684E-017   2.0377294361786375E-017  0.53705127500000005     
 chl2c          60  0.64452155000000000        3.7607757740906807E-002  0.64452155000000000        0.0000000000000000        1.2182561276545718E-005
 chl          60   1.3135272946272345E-017   2.0379881706472570E-017  0.64452155000000000     
 chl2c          61  0.70794139999999994        3.7805373434125003E-002  0.70794139999999994        0.0000000000000000        9.1309812150066758E-016
 chl          61   1.4410134693689714E-017   2.0354982338495413E-017  0.70794139999999994     
 chl2c          62  0.76481592499999995        3.7956103087269030E-002  0.76481592499999995        0.0000000000000000        1.0792422554956275E-005
 chl          62   1.5582253849525206E-017   2.0373861657659921E-017  0.76481592499999995     
 chl2c          63  0.72597904999999996        3.7855601011927406E-002  0.72597904999999996        0.0000000000000000        6.9045192422182057E-006
 chl          63   1.4794575980041171E-017   2.0378791894946791E-017  0.72597904999999996     
 chl2c          64  0.48435739999999999        2.5708982294816416E-002  0.48435739999999999        0.0000000000000000        5.2673098955948360E-016
 chl          64   1.0167319298003111E-018   2.0991357410876988E-018  0.48435739999999999     
 chl2c          65  0.76379975000000000        3.7953597170552002E-002  0.76379975000000000        0.0000000000000000        1.1341976381600938E-005
 chl          65   1.5566850160226549E-017   2.0380800282045848E-017  0.76379975000000000     
 chl2c          66  0.35213202499999996        3.1840477731474713E-002  0.35213202499999996        0.0000000000000000        2.4558841978960398E-019
 chl          66   7.3917291925806448E-019   2.0991357410847949E-018  0.35213202499999996     
 chl2c          67  0.75736760000000003        3.7937587124568600E-002  0.75736760000000003        0.0000000000000000        9.1054684796551762E-016
 chl          67   1.5416204121748639E-017   2.0354982338495388E-017  0.75736760000000003     
 chl2c          68  0.72590779999999999        3.7855407263856986E-002  0.72590779999999999        0.0000000000000000        1.0685599339941895E-005
 chl          68   1.4794044634782809E-017   2.0380060160233587E-017  0.72590779999999999     
 chl2c          69  0.45524217500000003        2.1732330561541505E-002  0.45524217500000003        0.0000000000000000        5.3122110194676285E-016
 chl          69   9.5561512039307685E-019   2.0991357410878656E-018  0.45524217500000003     
 chl2c          70  0.48694062500000002        3.2658010878182209E-002  0.48694062500000002        0.0000000000000000        3.9268998310600171E-018
 chl          70   1.0221544697236800E-018   2.0991357410848188E-018  0.48694062500000002     
 chl2c          71  0.23986107500000001        4.3481058864416305E-002  0.23986107500000001        0.0000000000000000        3.9095230058222308E-009
 chl          71   5.0350760127780876E-019   2.0991634481660219E-018  0.23986107500000001     
 chl2c          72  0.62790522500000001        3.7549776402781669E-002  0.62790522500000001        0.0000000000000000        7.8885310507267032E-006
 chl          72   1.2787860320213214E-017   2.0365908438193383E-017  0.62790522500000001     
 chl2c          73  0.35362212500000001        3.1852614277819484E-002  0.35362212500000001        0.0000000000000000        3.0841622334513568E-019
 chl          73   7.4230084142585497E-019   2.0991357410847949E-018  0.35362212500000001     
 chl2c          74  0.64719590000000005        3.7616827685877569E-002  0.64719590000000005        0.0000000000000000        1.2388419709006457E-005
 chl          74   1.3189946435884657E-017   2.0380145232509439E-017  0.64719590000000005     
 chl2c          75  0.71554212500000003        3.7826830779512356E-002  0.71554212500000003        0.0000000000000000        7.9600931977512387E-016
 chl          75   1.4564847316824796E-017   2.0354982338495857E-017  0.71554212500000003     
 chl2c          76  0.55513977500000000        3.7257729557919804E-002  0.55513977500000000        0.0000000000000000        7.9600931977512387E-016
 chl          76   1.1302804605813410E-017   2.0360286030330668E-017  0.55513977500000000     
 chl2c          77  0.52973029999999999        3.7138172437479272E-002  0.52973029999999999        0.0000000000000000        1.2693449554092274E-005
 chl          77   1.0794234425525435E-017   2.0376849173108346E-017  0.52973029999999999     
 chl2c          78  0.45117492500000000        4.7515248899399322E-002  0.45117492500000000        0.0000000000000000        4.0535875964989229E-018
 chl          78   9.4707741054876293E-019   2.0991357410848196E-018  0.45117492500000000     
 prod   1.1148520176854633E-009   0.0000000000000000        10.000000000000000     
 chl2c           1  0.60826437499999997        3.7477407714772232E-002  0.60826437499999997        0.0000000000000000        1.1192007550234628E-005
 chl           1   3.4360160582494153E-021   5.6488859112444579E-021  0.60826437499999997     
 chl2c           2  0.48302390000000001        3.2640259920490348E-002  0.48302390000000001        0.0000000000000000        2.1457603861688915E-019
 chl           2   2.4411288287758345E-021   5.0538468775061327E-021  0.48302390000000001     
 chl2c           3  0.75128689999999998        3.7922212503796585E-002  0.75128689999999998        0.0000000000000000        8.1690719543223711E-016
 chl           3   4.2435846186963524E-021   5.6484208878077773E-021  0.75128689999999998     
 chl2c           4  0.77318742499999993        3.7976509103863923E-002  0.77318742499999993        0.0000000000000000        4.7551561499759631E-006
 chl           4   4.3676795314029773E-021   5.6489272719392427E-021  0.77318742499999993     
 chl2c           5  0.48489679999999996        2.5710500362372445E-002  0.48489679999999996        0.0000000000000000        5.3399195872159319E-016
 chl           5   2.4505941785927449E-021   5.0538468775061936E-021  0.48489679999999996     
 chl2c           6  0.29222855000000003        3.1261039902252048E-002  0.29222855000000003        0.0000000000000000        5.3285227761070108E-008
 chl           6   1.4768795753575565E-021   5.0538510879842386E-021  0.29222855000000003     
 chl2c           7  0.22770740000000000        4.3064391842467263E-002  0.22770740000000000        0.0000000000000000        2.0938198644561519E-019
 chl           7   1.1507983418174680E-021   5.0538469185343469E-021  0.22770740000000000     
 chl2c           8  0.49578364999999996        4.7969800906495587E-002  0.49578364999999996        0.0000000000000000        1.9954740459514716E-009
 chl           8   2.5056148896381667E-021   5.0538473578912232E-021  0.49578364999999996     
 chl2c           9  0.28700202499999999        2.4803669054600401E-002  0.28700202499999999        0.0000000000000000        4.2574446550748385E-007
 chl           9   1.4505089517104554E-021   5.0540024994961464E-021  0.28700202499999999     
 chl2c          10  0.39094662499999999        2.5387016219684602E-002  0.39094662499999999        0.0000000000000000        5.3736846223407694E-016
 chl          10   1.9757843800278356E-021   5.0538468775061959E-021  0.39094662499999999     
 chl2c          11  0.49737575000000001        2.1820572217820047E-002  0.49737575000000001        0.0000000000000000        5.3790814840982704E-016
 chl          11   2.5136608810848015E-021   5.0538468775061944E-021  0.49737575000000001     
 chl2c          12  0.30768942500000002        4.5290941298723353E-002  0.30768942500000002        0.0000000000000000        1.7283863498205154E-009
 chl          12   1.5550152436231759E-021   5.0538468900033717E-021  0.30768942500000002     
 chl2c          13  0.75666275000000005        3.7935816987997487E-002  0.75666275000000005        0.0000000000000000        1.0343955989116254E-005
 chl          13   4.2741526190777450E-021   5.6486890878105801E-021  0.75666275000000005     
 chl2c          14  0.39804095000000000        4.6856526101924839E-002  0.39804095000000000        0.0000000000000000        3.0473792264765096E-018
 chl          14   2.0116380122770751E-021   5.0538468775061335E-021  0.39804095000000000     
 chl2c          15  0.25607262500000000        2.0954299823745293E-002  0.25607262500000000        0.0000000000000000        5.3943636266158012E-016
 chl          15   1.2941518362710657E-021   5.0538468775061981E-021  0.25607262500000000     
 chl2c          16  0.71433214999999994        3.7823443882273475E-002  0.71433214999999994        0.0000000000000000        1.0670158811329323E-005
 chl          16   4.0351241497391935E-021   5.6488065807190587E-021  0.71433214999999994     
 chl2c          17  0.62580860000000005        3.7542254757581245E-002  0.62580860000000005        0.0000000000000000        8.1690719543223711E-016
 chl          17   3.5348303680097428E-021   5.6484208878077773E-021  0.62580860000000005     
 chl2c          18  0.47925950000000000        2.5694475239060960E-002  0.47925950000000000        0.0000000000000000        5.3855461618542128E-016
 chl          18   2.4221041275901799E-021   5.0538468775061944E-021  0.47925950000000000     
 chl2c          19  0.63367130000000005        3.7570220750293731E-002  0.63367130000000005        0.0000000000000000        7.8628830851397258E-006
 chl          19   3.5795407994190708E-021   5.6488920981888731E-021  0.63367130000000005     
 chl2c          20  0.50678202500000002        3.7020645196759419E-002  0.50678202500000002        0.0000000000000000        8.6643702833883209E-006
 chl          20   2.8625834999189385E-021   5.6485497880848053E-021  0.50678202500000002     
 chl2c          21  0.71973185000000006        3.7838475073783531E-002  0.71973185000000006        0.0000000000000000        1.1498606420900290E-005
 chl          21   4.0657466280564584E-021   5.6489741673325391E-021  0.71973185000000006     
 chl2c          22  0.64616892500000001        3.7613353106285476E-002  0.64616892500000001        0.0000000000000000        8.1690719543223711E-016
 chl          22   3.6500569794290485E-021   5.6487658849101241E-021  0.64616892500000001     
 chl2c          23  0.41564179999999995        3.2286562315070731E-002  0.41564179999999995        0.0000000000000000        4.1949764949387883E-009
 chl          23   2.1005902250987946E-021   5.0538473875793889E-021  0.41564179999999995     
 chl2c          24  0.57597492500000003        3.7348402796863071E-002  0.57597492500000003        0.0000000000000000        9.1112390095191825E-016
 chl          24   3.2533487972235116E-021   5.6484208878077660E-021  0.57597492500000003     
 chl2c          25  0.31406487500000002        4.5426679235459781E-002  0.31406487500000002        0.0000000000000000        3.1920419894937101E-009
 chl          25   1.5872359054256383E-021   5.0538472518636098E-021  0.31406487500000002     
 chl2c          26  0.49427735000000000        4.7955660680174553E-002  0.49427735000000000        0.0000000000000000        2.1172630882245963E-019
 chl          26   2.4980020419195057E-021   5.0538468775061327E-021  0.49427735000000000     
 chl2c          27  0.30964730000000001        4.5333133499525620E-002  0.30964730000000001        0.0000000000000000        3.0209865186502145E-018
 chl          27   1.5649100402332051E-021   5.0538468775061335E-021  0.30964730000000001     
 chl2c          28  0.28776342500000002        3.1209236063453518E-002  0.28776342500000002        0.0000000000000000        3.0022014745331600E-018
 chl          28   1.4543122868967204E-021   5.0538468775061335E-021  0.28776342500000002     
 chl2c          29  0.68676297499999994        3.7743217595736761E-002  0.68676297499999994        0.0000000000000000        9.1971893141884964E-016
 chl          29   3.8791263409249428E-021   5.6484208994011985E-021  0.68676297499999994     
 chl2c          30  0.38930277499999999        2.5380056985171612E-002  0.38930277499999999        0.0000000000000000        5.3985554833683043E-016
 chl          30   1.9674766138382467E-021   5.0538468775061951E-021  0.38930277499999999     
 chl2c          31  0.63559385000000002        3.7576959810037038E-002  0.63559385000000002        0.0000000000000000        9.2291096486825379E-016
 chl          31   3.5901015785021578E-021   5.6484208878077690E-021  0.63559385000000002     
 chl2c          32  0.24722667500000001        2.0893126428578448E-002  0.24722667500000001        0.0000000000000000        5.4007111691058109E-016
 chl          32   1.2494531471372166E-021   5.0538767596062058E-021  0.24722667500000001     
 chl2c          33  0.60343137499999999        3.7458922634011876E-002  0.60343137499999999        0.0000000000000000        7.7240295875800710E-006
 chl          33   3.4087264262491225E-021   5.6489048588982012E-021  0.60343137499999999     
 chl2c          34  0.38241020000000003        2.5350269098008315E-002  0.38241020000000003        0.0000000000000000        5.3352941249782109E-016
 chl          34   1.9326425951965191E-021   5.0538468775061936E-021  0.38241020000000003     
 chl2c          35  0.49574644999999995        2.5740370148566064E-002  0.49574644999999995        0.0000000000000000        5.3470317953560233E-016
 chl          35   2.5054266483672802E-021   5.0538468775061936E-021  0.49574644999999995     
 chl2c          36  0.69587337500000002        3.7770393924465726E-002  0.69587337500000002        0.0000000000000000        8.1690719543223711E-016
 chl          36   3.9305857066192944E-021   5.6484208878077773E-021  0.69587337500000002     
 chl2c          37  0.33194060000000003        2.1353674699533250E-002  0.33194060000000003        0.0000000000000000        5.3302118812641602E-016
 chl          37   1.6775769648275326E-021   5.0538468775061936E-021  0.33194060000000003     
 chl2c          38  0.38455722500000000        2.1543295686358745E-002  0.38455722500000000        0.0000000000000000        5.4013150453252407E-016
 chl          38   1.9434933307886972E-021   5.0538468775061951E-021  0.38455722500000000     
 chl2c          39  0.47091117500000002        2.5670077108751441E-002  0.47091117500000002        0.0000000000000000        5.3693444077789507E-016
 chl          39   2.3799129713565230E-021   5.0538468775061944E-021  0.47091117500000002     
 chl2c          40  0.66875547499999999        3.7687445774703773E-002  0.66875547499999999        0.0000000000000000        1.0663597339984005E-005
 chl          40   3.7776619970871477E-021   5.6487941232737540E-021  0.66875547499999999     
 chl2c          41  0.44304987499999998        2.5582381488167241E-002  0.44304987499999998        0.0000000000000000        7.2845868464845516E-006
 chl          41   2.2392028159857261E-021   5.0540648860034694E-021  0.44304987499999998     
 chl2c          42  0.76234377499999995        3.7949995630725070E-002  0.76234377499999995        0.0000000000000000        1.2277897103557679E-005
 chl          42   4.3064006735709721E-021   5.6488959637284015E-021  0.76234377499999995     
 chl2c          43  0.29539925000000000        2.1185090152268007E-002  0.29539925000000000        0.0000000000000000        6.0500282657103464E-006
 chl          43   1.4929789296618613E-021   5.0541053494951703E-021  0.29539925000000000     
 chl2c          44  0.62417262500000004        3.7536352708156646E-002  0.62417262500000004        0.0000000000000000        7.6859115654027175E-006
 chl          44   3.5256522959566403E-021   5.6485211858764877E-021  0.62417262500000004     
 chl2c          45  0.37662252499999999        4.6544927192009838E-002  0.37662252499999999        0.0000000000000000        2.8199088271297830E-019
 chl          45   1.9033925719697255E-021   5.0538468775061335E-021  0.37662252499999999     
 chl2c          46  0.51876034999999998        3.7083195475449568E-002  0.51876034999999998        0.0000000000000000        9.2287166638374411E-016
 chl          46   2.9301767967069240E-021   5.6484208878086462E-021  0.51876034999999998     
 chl2c          47  0.61962282499999999        3.7519784612651236E-002  0.61962282499999999        0.0000000000000000        9.2350480933937893E-016
 chl          47   3.4998905072924577E-021   5.6484208878077690E-021  0.61962282499999999     
 chl2c          48  0.71424949999999998        3.7823212136301673E-002  0.71424949999999998        0.0000000000000000        1.1546343022230867E-005
 chl          48   4.0346469022049213E-021   5.6487920568441718E-021  0.71424949999999998     
 chl2c          49  0.53276120000000005        3.7152990741888416E-002  0.53276120000000005        0.0000000000000000        9.1846907344832311E-016
 chl          49   3.0092594902935320E-021   5.6484208878077675E-021  0.53276120000000005     
 chl2c          50  0.38132569999999999        2.1533072915600981E-002  0.38132569999999999        0.0000000000000000        5.3583450749645944E-016
 chl          50   1.9272165068088557E-021   5.0539906091009756E-021  0.38132569999999999     
 chl2c          51  0.22275920000000002        2.0700971146093840E-002  0.22275920000000002        0.0000000000000000        5.4092023263596874E-016
 chl          51   1.1257908873557782E-021   5.0538468775061951E-021  0.22275920000000002     
 chl2c          52  0.63698869999999996        3.7581825176985564E-002  0.63698869999999996        0.0000000000000000        9.9354519427041660E-006
 chl          52   3.5981643450599787E-021   5.6487098516189993E-021  0.63698869999999996     
 chl2c          53  0.75269794999999995        3.7925801262726190E-002  0.75269794999999995        0.0000000000000000        1.1037388564697836E-005
 chl          53   4.2518962684119575E-021   5.6488745165467206E-021  0.75269794999999995     
 chl2c          54  0.51861124999999997        3.7082433371327092E-002  0.51861124999999997        0.0000000000000000        9.1161732257828074E-016
 chl          54   2.9293346171520949E-021   5.6484208878077660E-021  0.51861124999999997     
 chl2c          55  0.57808280000000001        3.7357235588660491E-002  0.57808280000000001        0.0000000000000000        9.2509013219794870E-016
 chl          55   3.2654457588299980E-021   5.6487509381528010E-021  0.57808280000000001     
 chl2c          56  0.61626080000000005        3.7507394187257688E-002  0.61626080000000005        0.0000000000000000        8.1690719543223711E-016
 chl          56   3.4809003750571316E-021   5.6484208878077773E-021  0.61626080000000005     
 chl2c          57  0.68163462500000005        3.7727617852646313E-002  0.68163462500000005        0.0000000000000000        9.2578836495040323E-016
 chl          57   3.8501592537030157E-021   5.6484208878077690E-021  0.68163462500000005     
 chl2c          58  0.69416802499999997        3.7765358178394853E-002  0.69416802499999997        0.0000000000000000        9.1535247135767488E-006
 chl          58   3.9213011624189494E-021   5.6489221934688648E-021  0.69416802499999997     
 chl2c          59  0.53705127500000005        3.7173699120809672E-002  0.53705127500000005        0.0000000000000000        1.2712155932341534E-005
 chl          59   3.0337381321822302E-021   5.6488798619502951E-021  0.53705127500000005     
 chl2c          60  0.64452155000000000        3.7607757740906807E-002  0.64452155000000000        0.0000000000000000        1.1065472085908558E-005
 chl          60   3.6408591080904461E-021   5.6489330854654064E-021  0.64452155000000000     
 chl2c          61  0.70794139999999994        3.7805373434125003E-002  0.70794139999999994        0.0000000000000000        9.2040375573985178E-016
 chl          61   3.9987509911038745E-021   5.6484208878077683E-021  0.70794139999999994     
 chl2c          62  0.76481592499999995        3.7956103087269030E-002  0.76481592499999995        0.0000000000000000        1.1499363978764847E-005
 chl          62   4.3202992707633934E-021   5.6488092487919802E-021  0.76481592499999995     
 chl2c          63  0.72597904999999996        3.7855601011927406E-002  0.72597904999999996        0.0000000000000000        4.7562414408537481E-006
 chl          63   4.1009907997591333E-021   5.6489106672694389E-021  0.72597904999999996     
 chl2c          64  0.48435739999999999        2.5708982294816416E-002  0.48435739999999999        0.0000000000000000        5.3022970248371860E-016
 chl          64   2.4478681335870179E-021   5.0538468775061929E-021  0.48435739999999999     
 chl2c          65  0.76379975000000000        3.7953597170552002E-002  0.76379975000000000        0.0000000000000000        1.1204643999625948E-005
 chl          65   4.3146681110150840E-021   5.6489519812163909E-021  0.76379975000000000     
 chl2c          66  0.35213202499999996        3.1840477731474713E-002  0.35213202499999996        0.0000000000000000        2.3190541844880652E-019
 chl          66   1.7796213350161614E-021   5.0538468775061335E-021  0.35213202499999996     
 chl2c          67  0.75736760000000003        3.7937587124568600E-002  0.75736760000000003        0.0000000000000000        9.1819643185169248E-016
 chl          67   4.2779309715888380E-021   5.6484208878077675E-021  0.75736760000000003     
 chl2c          68  0.72590779999999999        3.7855407263856986E-002  0.72590779999999999        0.0000000000000000        9.8026064157990325E-006
 chl          68   4.1006072531671719E-021   5.6489367563858275E-021  0.72590779999999999     
 chl2c          69  0.45524217500000003        2.1732330561541505E-002  0.45524217500000003        0.0000000000000000        5.3409870774325135E-016
 chl          69   2.3007242446328792E-021   5.0538468775061959E-021  0.45524217500000003     
 chl2c          70  0.48694062500000002        3.2658010878182209E-002  0.48694062500000002        0.0000000000000000        3.7123265451072384E-018
 chl          70   2.4609233571871353E-021   5.0538468775061335E-021  0.48694062500000002     
 chl2c          71  0.23986107500000001        4.3481058864416305E-002  0.23986107500000001        0.0000000000000000        3.5206751246484209E-009
 chl          71   1.2122212816338683E-021   5.0538474474604441E-021  0.23986107500000001     
 chl2c          72  0.62790522500000001        3.7549776402781669E-002  0.62790522500000001        0.0000000000000000        9.2212244838347602E-006
 chl          72   3.5468141149372492E-021   5.6486456454272206E-021  0.62790522500000001     
 chl2c          73  0.35362212500000001        3.1852614277819484E-002  0.35362212500000001        0.0000000000000000        2.9123461057337314E-019
 chl          73   1.7871520722483335E-021   5.0538468775061335E-021  0.35362212500000001     
 chl2c          74  0.64719590000000005        3.7616827685877569E-002  0.64719590000000005        0.0000000000000000        1.1274323038423121E-005
 chl          74   3.6559698406831202E-021   5.6489385063828741E-021  0.64719590000000005     
 chl2c          75  0.71554212500000003        3.7826830779512356E-002  0.71554212500000003        0.0000000000000000        8.1690719543223711E-016
 chl          75   4.0416830849563636E-021   5.6484208878077773E-021  0.71554212500000003     
 chl2c          76  0.55513977500000000        3.7257729557919804E-002  0.55513977500000000        0.0000000000000000        8.1690719543223711E-016
 chl          76   3.1357236669022700E-021   5.6485299885101368E-021  0.55513977500000000     
 chl2c          77  0.52973029999999999        3.7138172437479272E-002  0.52973029999999999        0.0000000000000000        1.2072642601733930E-005
 chl          77   2.9923779727459404E-021   5.6488707041034663E-021  0.52973029999999999     
 chl2c          78  0.45117492500000000        4.7515248899399322E-002  0.45117492500000000        0.0000000000000000        3.8321334096736572E-018
 chl          78   2.2801689859203140E-021   5.0538468775061335E-021  0.45117492500000000     
 prod   1.0527116977123420E-009   0.0000000000000000        10.000000000000000     
 chl2c           1  0.60826437499999997        3.7477407714772232E-002  0.60826437499999997        0.0000000000000000        1.0666560960542043E-005
 chl           1   3.0413582123049885E-021   5.0000597393279666E-021  0.60826437499999997     
 chl2c           2  0.48302390000000001        3.2640259920490348E-002  0.48302390000000001        0.0000000000000000        2.0603089088392466E-019
 chl           2   2.4151420453765275E-021   5.0000466754885786E-021  0.48302390000000001     
 chl2c           3  0.75128689999999998        3.7922212503796585E-002  0.75128689999999998        0.0000000000000000        8.5758744794889702E-016
 chl           3   3.7564793763437662E-021   5.0000597326317896E-021  0.75128689999999998     
 chl2c           4  0.77318742499999993        3.7976509103863923E-002  0.77318742499999993        0.0000000000000000        7.5630686099935358E-007
 chl           4   3.8659833151576561E-021   5.0000597399235462E-021  0.77318742499999993     
 chl2c           5  0.48489679999999996        2.5710500362372445E-002  0.48489679999999996        0.0000000000000000        5.3790860380098463E-016
 chl           5   2.4245066327950502E-021   5.0000466754885786E-021  0.48489679999999996     
 chl2c           6  0.29222855000000003        3.1261039902252048E-002  0.29222855000000003        0.0000000000000000        4.7901882561606220E-008
 chl           6   1.4611563899280657E-021   5.0000466755492078E-021  0.29222855000000003     
 chl2c           7  0.22770740000000000        4.3064391842467263E-002  0.22770740000000000        0.0000000000000000        2.0104360805665234E-019
 chl           7   1.1385476283542826E-021   5.0000466754891692E-021  0.22770740000000000     
 chl2c           8  0.49578364999999996        4.7969800906495587E-002  0.49578364999999996        0.0000000000000000        4.8902579417233518E-010
 chl           8   2.4789413909475226E-021   5.0000466754954962E-021  0.49578364999999996     
 chl2c           9  0.28700202499999999        2.4803669054600401E-002  0.28700202499999999        0.0000000000000000        5.4052552784511989E-016
 chl           9   1.4350235216028837E-021   5.0000466777294816E-021  0.28700202499999999     
 chl2c          10  0.39094662499999999        2.5387016219684602E-002  0.39094662499999999        0.0000000000000000        5.4053461666840816E-016
 chl          10   1.9547513726247299E-021   5.0000466754885786E-021  0.39094662499999999     
 chl2c          11  0.49737575000000001        2.1820572217820047E-002  0.49737575000000001        0.0000000000000000        5.4095389976864093E-016
 chl          11   2.4869019652561385E-021   5.0000466754885786E-021  0.49737575000000001     
 chl2c          12  0.30768942500000002        4.5290941298723353E-002  0.30768942500000002        0.0000000000000000        2.4139477986028064E-009
 chl          12   1.5384614865542978E-021   5.0000466754887584E-021  0.30768942500000002     
 chl2c          13  0.75666275000000005        3.7935816987997487E-002  0.75666275000000005        0.0000000000000000        1.1337108252407398E-005
 chl          13   3.7833589503796574E-021   5.0000597364937772E-021  0.75666275000000005     
 chl2c          14  0.39804095000000000        4.6856526101924839E-002  0.39804095000000000        0.0000000000000000        2.8586503834628919E-018
 chl          14   1.9902233287558156E-021   5.0000466754885786E-021  0.39804095000000000     
 chl2c          15  0.25607262500000000        2.0954299823745293E-002  0.25607262500000000        0.0000000000000000        5.4214067377676501E-016
 chl          15   1.2803750773148835E-021   5.0000466754885786E-021  0.25607262500000000     
 chl2c          16  0.71433214999999994        3.7823443882273475E-002  0.71433214999999994        0.0000000000000000        1.0906842691821173E-005
 chl          16   3.5717034229065807E-021   5.0000597381856344E-021  0.71433214999999994     
 chl2c          17  0.62580860000000005        3.7542254757581245E-002  0.62580860000000005        0.0000000000000000        8.5758744794889702E-016
 chl          17   3.1290803811946747E-021   5.0000597326317896E-021  0.62580860000000005     
 chl2c          18  0.47925950000000000        2.5694475239060960E-002  0.47925950000000000        0.0000000000000000        5.4145601175915889E-016
 chl          18   2.3963198696713185E-021   5.0000466754885786E-021  0.47925950000000000     
 chl2c          19  0.63367130000000005        3.7570220750293731E-002  0.63367130000000005        0.0000000000000000        3.9964140163302501E-006
 chl          19   3.1683943551540674E-021   5.0000597394170559E-021  0.63367130000000005     
 chl2c          20  0.50678202500000002        3.7020645196759419E-002  0.50678202500000002        0.0000000000000000        1.0659094279882150E-005
 chl          20   2.5339403973647451E-021   5.0000597344879091E-021  0.50678202500000002     
 chl2c          21  0.71973185000000006        3.7838475073783531E-002  0.71973185000000006        0.0000000000000000        8.4734597099127810E-006
 chl          21   3.5987022472117122E-021   5.0000597405988239E-021  0.71973185000000006     
 chl2c          22  0.64616892500000001        3.7613353106285476E-002  0.64616892500000001        0.0000000000000000        8.5758744794889702E-016
 chl          22   3.2308832255805337E-021   5.0000597375996281E-021  0.64616892500000001     
 chl2c          23  0.41564179999999995        3.2286562315070731E-002  0.41564179999999995        0.0000000000000000        3.7592346347111449E-009
 chl          23   2.0782284002871411E-021   5.0000466754959235E-021  0.41564179999999995     
 chl2c          24  0.57597492500000003        3.7348402796863071E-002  0.57597492500000003        0.0000000000000000        9.2306079312744686E-016
 chl          24   2.8799090294981153E-021   5.0000597326317896E-021  0.57597492500000003     
 chl2c          25  0.31406487500000002        4.5426679235459781E-002  0.31406487500000002        0.0000000000000000        2.8635683295662911E-009
 chl          25   1.5703390341331793E-021   5.0000466754939697E-021  0.31406487500000002     
 chl2c          26  0.49427735000000000        4.7955660680174553E-002  0.49427735000000000        0.0000000000000000        2.0329460514672901E-019
 chl          26   2.4714098206368045E-021   5.0000466754885786E-021  0.49427735000000000     
 chl2c          27  0.30964730000000001        4.5333133499525620E-002  0.30964730000000001        0.0000000000000000        2.8338845611413650E-018
 chl          27   1.5482509529390146E-021   5.0000466754885786E-021  0.30964730000000001     
 chl2c          28  0.28776342500000002        3.1209236063453518E-002  0.28776342500000002        0.0000000000000000        2.8162575363607101E-018
 chl          28   1.4388305564984571E-021   5.0000466754885786E-021  0.28776342500000002     
 chl2c          29  0.68676297499999994        3.7743217595736761E-002  0.68676297499999994        0.0000000000000000        9.2980810542551883E-016
 chl          29   3.4338558971600271E-021   5.0000597326319566E-021  0.68676297499999994     
 chl2c          30  0.38930277499999999        2.5380056985171612E-002  0.38930277499999999        0.0000000000000000        5.4246610447923459E-016
 chl          30   1.9465320458972282E-021   5.0000466754885786E-021  0.38930277499999999     
 chl2c          31  0.63559385000000002        3.7576959810037038E-002  0.63559385000000002        0.0000000000000000        9.3230714183328423E-016
 chl          31   3.1780072156934098E-021   5.0000597326317896E-021  0.63559385000000002     
 chl2c          32  0.24722667500000001        2.0893126428578448E-002  0.24722667500000001        0.0000000000000000        5.4263344785783527E-016
 chl          32   1.2361449145322251E-021   5.0000466759188712E-021  0.24722667500000001     
 chl2c          33  0.60343137499999999        3.7458922634011876E-002  0.60343137499999999        0.0000000000000000        3.0680607853274446E-006
 chl          33   3.0171929237494565E-021   5.0000597396008062E-021  0.60343137499999999     
 chl2c          34  0.38241020000000003        2.5350269098008315E-002  0.38241020000000003        0.0000000000000000        5.3754843817776199E-016
 chl          34   1.9120688491829228E-021   5.0000466754885786E-021  0.38241020000000003     
 chl2c          35  0.49574644999999995        2.5740370148566064E-002  0.49574644999999995        0.0000000000000000        5.3846218813242888E-016
 chl          35   2.4787553892077646E-021   5.0000466754885786E-021  0.49574644999999995     
 chl2c          36  0.69587337500000002        3.7770393924465726E-002  0.69587337500000002        0.0000000000000000        8.5758744794889702E-016
 chl          36   3.4794084413480812E-021   5.0000597326317896E-021  0.69587337500000002     
 chl2c          37  0.33194060000000003        2.1353674699533250E-002  0.33194060000000003        0.0000000000000000        5.3715257490617820E-016
 chl          37   1.6597184934896843E-021   5.0000466754885786E-021  0.33194060000000003     
 chl2c          38  0.38455722500000000        2.1543295686358745E-002  0.38455722500000000        0.0000000000000000        5.4268032495516087E-016
 chl          38   1.9228040743963635E-021   5.0000466754885786E-021  0.38455722500000000     
 chl2c          39  0.47091117500000002        2.5670077108751441E-002  0.47091117500000002        0.0000000000000000        5.4019734545114607E-016
 chl          39   2.3545778550091702E-021   5.0000466754885786E-021  0.47091117500000002     
 chl2c          40  0.66875547499999999        3.7687445774703773E-002  0.66875547499999999        0.0000000000000000        1.0905607733714683E-005
 chl          40   3.3438173251187462E-021   5.0000597380062513E-021  0.66875547499999999     
 chl2c          41  0.44304987499999998        2.5582381488167241E-002  0.44304987499999998        0.0000000000000000        6.8320019604823068E-006
 chl          41   2.2152700559602233E-021   5.0000466786278256E-021  0.44304987499999998     
 chl2c          42  0.76234377499999995        3.7949995630725070E-002  0.76234377499999995        0.0000000000000000        1.1864845749721371E-005
 chl          42   3.8117644170151492E-021   5.0000597394727191E-021  0.76234377499999995     
 chl2c          43  0.29539925000000000        2.1185090152268007E-002  0.29539925000000000        0.0000000000000000        2.8437878801918702E-006
 chl          43   1.4770100390037682E-021   5.0000466792104864E-021  0.29539925000000000     
 chl2c          44  0.62417262500000004        3.7536352708156646E-002  0.62417262500000004        0.0000000000000000        1.0127245120763202E-005
 chl          44   3.1209004093750487E-021   5.0000597340760475E-021  0.62417262500000004     
 chl2c          45  0.37662252499999999        4.6544927192009838E-002  0.37662252499999999        0.0000000000000000        2.7076236600201381E-019
 chl          45   1.8831302040403638E-021   5.0000466754885786E-021  0.37662252499999999     
 chl2c          46  0.51876034999999998        3.7083195475449568E-002  0.51876034999999998        0.0000000000000000        9.3227639700782859E-016
 chl          46   2.5938327369209735E-021   5.0000597326317896E-021  0.51876034999999998     
 chl2c          47  0.61962282499999999        3.7519784612651236E-002  0.61962282499999999        0.0000000000000000        1.2199292114851008E-006
 chl          47   3.0981511367020543E-021   5.0000597326317896E-021  0.61962282499999999     
 chl2c          48  0.71424949999999998        3.7823212136301673E-002  0.71424949999999998        0.0000000000000000        1.1737918930277620E-005
 chl          48   3.5712901678198424E-021   5.0000597379764950E-021  0.71424949999999998     
 chl2c          49  0.53276120000000005        3.7152990741888416E-002  0.53276120000000005        0.0000000000000000        1.6414929465365893E-006
 chl          49   2.6638378232285917E-021   5.0000597326317896E-021  0.53276120000000005     
 chl2c          50  0.38132569999999999        2.1533072915600981E-002  0.38132569999999999        0.0000000000000000        5.3934225605152249E-016
 chl          50   1.9066462993525795E-021   5.0000466775582642E-021  0.38132569999999999     
 chl2c          51  0.22275920000000002        2.0700971146093840E-002  0.22275920000000002        0.0000000000000000        5.4329256361492959E-016
 chl          51   1.1138063973944955E-021   5.0000466754885786E-021  0.22275920000000002     
 chl2c          52  0.63698869999999996        3.7581825176985564E-002  0.63698869999999996        0.0000000000000000        1.0723811243467841E-005
 chl          52   3.1849815516619678E-021   5.0000597367927688E-021  0.63698869999999996     
 chl2c          53  0.75269794999999995        3.7925801262726190E-002  0.75269794999999995        0.0000000000000000        1.0957767526650480E-005
 chl          53   3.7635347155461918E-021   5.0000597391638864E-021  0.75269794999999995     
 chl2c          54  0.51861124999999997        3.7082433371327092E-002  0.51861124999999997        0.0000000000000000        1.9475767951672987E-006
 chl          54   2.5930872280148382E-021   5.0000597326317896E-021  0.51861124999999997     
 chl2c          55  0.57808280000000001        3.7357235588660491E-002  0.57808280000000001        0.0000000000000000        9.3401115180693733E-016
 chl          55   2.8904485331544387E-021   5.0000597373844001E-021  0.57808280000000001     
 chl2c          56  0.61626080000000005        3.7507394187257688E-002  0.61626080000000005        0.0000000000000000        8.5758744794889702E-016
 chl          56   3.0813408108794531E-021   5.0000597326317896E-021  0.61626080000000005     
 chl2c          57  0.68163462500000005        3.7727617852646313E-002  0.68163462500000005        0.0000000000000000        9.3455679085474492E-016
 chl          57   3.4082138408300706E-021   5.0000597326317896E-021  0.68163462500000005     
 chl2c          58  0.69416802499999997        3.7765358178394853E-002  0.69416802499999997        0.0000000000000000        5.8572778161722728E-006
 chl          58   3.4708815944939784E-021   5.0000597398504180E-021  0.69416802499999997     
 chl2c          59  0.53705127500000005        3.7173699120809672E-002  0.53705127500000005        0.0000000000000000        1.1751198016222563E-005
 chl          59   2.6852884580354712E-021   5.0000597392408589E-021  0.53705127500000005     
 chl2c          60  0.64452155000000000        3.7607757740906807E-002  0.64452155000000000        0.0000000000000000        7.7742183770021321E-006
 chl          60   3.2226462537220760E-021   5.0000597400072594E-021  0.64452155000000000     
 chl2c          61  0.70794139999999994        3.7805373434125003E-002  0.70794139999999994        0.0000000000000000        9.3034455779522214E-016
 chl          61   3.5397492872029742E-021   5.0000597326317896E-021  0.70794139999999994     
 chl2c          62  0.76481592499999995        3.7956103087269030E-002  0.76481592499999995        0.0000000000000000        1.1647306165587815E-005
 chl          62   3.8241253137450866E-021   5.0000597382240529E-021  0.76481592499999995     
 chl2c          63  0.72597904999999996        3.7855601011927406E-002  0.72597904999999996        0.0000000000000000        7.5721043901776037E-007
 chl          63   3.6299386197593608E-021   5.0000597396844450E-021  0.72597904999999996     
 chl2c          64  0.48435739999999999        2.5708982294816416E-002  0.48435739999999999        0.0000000000000000        5.3497570231274893E-016
 chl          64   2.4218096076182918E-021   5.0000466754885786E-021  0.48435739999999999     
 chl2c          65  0.76379975000000000        3.7953597170552002E-002  0.76379975000000000        0.0000000000000000        1.0787860361996506E-005
 chl          65   3.8190443796104335E-021   5.0000597402793512E-021  0.76379975000000000     
 chl2c          66  0.35213202499999996        3.1840477731474713E-002  0.35213202499999996        0.0000000000000000        2.2267043478959306E-019
 chl          66   1.7606765609343110E-021   5.0000466754885786E-021  0.35213202499999996     
 chl2c          67  0.75736760000000003        3.7937587124568600E-002  0.75736760000000003        0.0000000000000000        1.8599956479674109E-006
 chl          67   3.7868832395599803E-021   5.0000597326317896E-021  0.75736760000000003     
 chl2c          68  0.72590779999999999        3.7855407263856986E-002  0.72590779999999999        0.0000000000000000        6.9818621328823892E-006
 chl          68   3.6295823657756126E-021   5.0000597400601187E-021  0.72590779999999999     
 chl2c          69  0.45524217500000003        2.1732330561541505E-002  0.45524217500000003        0.0000000000000000        5.3799170911279090E-016
 chl          69   2.2762321236509398E-021   5.0000466754885786E-021  0.45524217500000003     
 chl2c          70  0.48694062500000002        3.2658010878182209E-002  0.48694062500000002        0.0000000000000000        3.4826534912106500E-018
 chl          70   2.4347258531915806E-021   5.0000466754885786E-021  0.48694062500000002     
 chl2c          71  0.23986107500000001        4.3481058864416305E-002  0.23986107500000001        0.0000000000000000        2.7927653943100159E-009
 chl          71   1.1993165706348352E-021   5.0000466754967856E-021  0.23986107500000001     
 chl2c          72  0.62790522500000001        3.7549776402781669E-002  0.62790522500000001        0.0000000000000000        1.0483388412886833E-005
 chl          72   3.1395636334637766E-021   5.0000597358682223E-021  0.62790522500000001     
 chl2c          73  0.35362212500000001        3.1852614277819484E-002  0.35362212500000001        0.0000000000000000        2.7963820727478199E-019
 chl          73   1.7681271304854567E-021   5.0000466754885786E-021  0.35362212500000001     
 chl2c          74  0.64719590000000005        3.7616827685877569E-002  0.64719590000000005        0.0000000000000000        8.0060522047885853E-006
 chl          74   3.2360181635382837E-021   5.0000597400853183E-021  0.64719590000000005     
 chl2c          75  0.71554212500000003        3.7826830779512356E-002  0.71554212500000003        0.0000000000000000        8.5758744794889702E-016
 chl          75   3.5777533662142826E-021   5.0000597326317896E-021  0.71554212500000003     
 chl2c          76  0.55513977500000000        3.7257729557919804E-002  0.55513977500000000        0.0000000000000000        8.5758744794889702E-016
 chl          76   2.7757320358319036E-021   5.0000597342028022E-021  0.55513977500000000     
 chl2c          77  0.52973029999999999        3.7138172437479272E-002  0.52973029999999999        0.0000000000000000        1.0035863814344957E-005
 chl          77   2.6486831456161263E-021   5.0000597391089884E-021  0.52973029999999999     
 chl2c          78  0.45117492500000000        4.7515248899399322E-002  0.45117492500000000        0.0000000000000000        3.5950922574738344E-018
 chl          78   2.2558956838100590E-021   5.0000466754885786E-021  0.45117492500000000     
 prod   1.0107734596810658E-009   0.0000000000000000        10.000000000000000     
 chl2c           1  0.60826437499999997        3.7477407714772232E-002  0.60826437499999997        0.0000000000000000        9.0751779779373504E-006
 chl           1   5.2148662250526823E-021   8.5733546783052729E-021  0.60826437499999997     
 chl2c           2  0.48302390000000001        3.2640259920490348E-002  0.48302390000000001        0.0000000000000000        2.0326159183711530E-019
 chl           2   4.1414161051982905E-021   8.5739362072938641E-021  0.48302390000000001     
 chl2c           3  0.75128689999999998        3.7922212503796585E-002  0.75128689999999998        0.0000000000000000        8.8068941909890699E-016
 chl           3   6.4410490588644406E-021   8.5733546783052397E-021  0.75128689999999998     
 chl2c           4  0.77318742499999993        3.7976509103863923E-002  0.77318742499999993        0.0000000000000000        8.8068941909890699E-016
 chl           4   6.6288100273305587E-021   8.5733546783052759E-021  0.77318742499999993     
 chl2c           5  0.48489679999999996        2.5710500362372445E-002  0.48489679999999996        0.0000000000000000        5.3956951639264094E-016
 chl           5   4.1574742303209311E-021   8.5739362072938641E-021  0.48489679999999996     
 chl2c           6  0.29222855000000003        3.1261039902252048E-002  0.29222855000000003        0.0000000000000000        4.2619403808206471E-008
 chl           6   2.5055489456499860E-021   8.5739362072938656E-021  0.29222855000000003     
 chl2c           7  0.22770740000000000        4.3064391842467263E-002  0.22770740000000000        0.0000000000000000        1.9834131986142244E-019
 chl           7   1.9523487215287468E-021   8.5739362072938641E-021  0.22770740000000000     
 chl2c           8  0.49578364999999996        4.7969800906495587E-002  0.49578364999999996        0.0000000000000000        2.1074704619786498E-019
 chl           8   4.2508173877193084E-021   8.5739362072938641E-021  0.49578364999999996     
 chl2c           9  0.28700202499999999        2.4803669054600401E-002  0.28700202499999999        0.0000000000000000        5.4184070916970991E-016
 chl           9   2.4607370537141617E-021   8.5739362072938747E-021  0.28700202499999999     
 chl2c          10  0.39094662499999999        2.5387016219684602E-002  0.39094662499999999        0.0000000000000000        5.4184857272654466E-016
 chl          10   3.3519514232068364E-021   8.5739362072938641E-021  0.39094662499999999     
 chl2c          11  0.49737575000000001        2.1820572217820047E-002  0.49737575000000001        0.0000000000000000        5.4221110538483148E-016
 chl          11   4.2644679515549410E-021   8.5739362072938641E-021  0.49737575000000001     
 chl2c          12  0.30768942500000002        4.5290941298723353E-002  0.30768942500000002        0.0000000000000000        2.4617109389270246E-009
 chl          12   2.6381095016089301E-021   8.5739362072938641E-021  0.30768942500000002     
 chl2c          13  0.75666275000000005        3.7935816987997487E-002  0.75666275000000005        0.0000000000000000        1.1043113770039023E-005
 chl          13   6.4871381276118235E-021   8.5733546783052593E-021  0.75666275000000005     
 chl2c          14  0.39804095000000000        4.6856526101924839E-002  0.39804095000000000        0.0000000000000000        2.7329317522780980E-018
 chl          14   3.4127777131906469E-021   8.5739362072938641E-021  0.39804095000000000     
 chl2c          15  0.25607262500000000        2.0954299823745293E-002  0.25607262500000000        0.0000000000000000        5.4323449807196087E-016
 chl          15   2.1955503511842840E-021   8.5739362072938641E-021  0.25607262500000000     
 chl2c          16  0.71433214999999994        3.7823443882273475E-002  0.71433214999999994        0.0000000000000000        1.0477516079610206E-005
 chl          16   6.1242228800663593E-021   8.5733546783052668E-021  0.71433214999999994     
 chl2c          17  0.62580860000000005        3.7542254757581245E-002  0.62580860000000005        0.0000000000000000        2.8551423141520161E-006
 chl          17   5.3652790885336532E-021   8.5733546783052397E-021  0.62580860000000005     
 chl2c          18  0.47925950000000000        2.5694475239060960E-002  0.47925950000000000        0.0000000000000000        5.4264462694403167E-016
 chl          18   4.1091403797395536E-021   8.5739362072938641E-021  0.47925950000000000     
 chl2c          19  0.63367130000000005        3.7570220750293731E-002  0.63367130000000005        0.0000000000000000        1.3751656337948675E-007
 chl          19   5.4326888043627845E-021   8.5733546783052729E-021  0.63367130000000005     
 chl2c          20  0.50678202500000002        3.7020645196759419E-002  0.50678202500000002        0.0000000000000000        1.0917113226448392E-005
 chl          20   4.3448220449147576E-021   8.5733546783052488E-021  0.50678202500000002     
 chl2c          21  0.71973185000000006        3.7838475073783531E-002  0.71973185000000006        0.0000000000000000        4.1877212380568299E-006
 chl          21   6.1705164233228128E-021   8.5733546783052774E-021  0.71973185000000006     
 chl2c          22  0.64616892500000001        3.7613353106285476E-002  0.64616892500000001        0.0000000000000000        8.8068941909890699E-016
 chl          22   5.5398353761242331E-021   8.5733546783052638E-021  0.64616892500000001     
 chl2c          23  0.41564179999999995        3.2286562315070731E-002  0.41564179999999995        0.0000000000000000        3.4029290271293176E-009
 chl          23   3.5636862782847942E-021   8.5739362072938641E-021  0.41564179999999995     
 chl2c          24  0.57597492500000003        3.7348402796863071E-002  0.57597492500000003        0.0000000000000000        9.2824384371486864E-016
 chl          24   4.9380373178352598E-021   8.5733546783052397E-021  0.57597492500000003     
 chl2c          25  0.31406487500000002        4.5426679235459781E-002  0.31406487500000002        0.0000000000000000        2.6016753300480920E-009
 chl          25   2.6927722032017219E-021   8.5739362072938641E-021  0.31406487500000002     
 chl2c          26  0.49427735000000000        4.7955660680174553E-002  0.49427735000000000        0.0000000000000000        4.1882376388492355E-010
 chl          26   4.2379024676102621E-021   8.5739362072938641E-021  0.49427735000000000     
 chl2c          27  0.30964730000000001        4.5333133499525620E-002  0.30964730000000001        0.0000000000000000        2.7092499899264970E-018
 chl          27   2.6548961969607854E-021   8.5739362072938641E-021  0.30964730000000001     
 chl2c          28  0.28776342500000002        3.1209236063453518E-002  0.28776342500000002        0.0000000000000000        1.3341707169520086E-008
 chl          28   2.4672652487423926E-021   8.5739362072938641E-021  0.28776342500000002     
 chl2c          29  0.68676297499999994        3.7743217595736761E-002  0.68676297499999994        0.0000000000000000        9.3416903545939130E-016
 chl          29   5.8878625646030741E-021   8.5733546783052397E-021  0.68676297499999994     
 chl2c          30  0.38930277499999999        2.5380056985171612E-002  0.38930277499999999        0.0000000000000000        5.4351428910369195E-016
 chl          30   3.3378571581724766E-021   8.5739362072938641E-021  0.38930277499999999     
 chl2c          31  0.63559385000000002        3.7576959810037038E-002  0.63559385000000002        0.0000000000000000        9.3635892295978195E-016
 chl          31   5.4491715073995389E-021   8.5733546783052397E-021  0.63559385000000002     
 chl2c          32  0.24722667500000001        2.0893126428578448E-002  0.24722667500000001        0.0000000000000000        5.4365800023360677E-016
 chl          32   2.1197057401913731E-021   8.5739362072938656E-021  0.24722667500000001     
 chl2c          33  0.60343137499999999        3.7458922634011876E-002  0.60343137499999999        0.0000000000000000        9.2987482972111655E-016
 chl          33   5.1734312018924344E-021   8.5733546783052744E-021  0.60343137499999999     
 chl2c          34  0.38241020000000003        2.5350269098008315E-002  0.38241020000000003        0.0000000000000000        5.3925602061468824E-016
 chl          34   3.2787606598184883E-021   8.5739362072938641E-021  0.38241020000000003     
 chl2c          35  0.49574644999999995        2.5740370148566064E-002  0.49574644999999995        0.0000000000000000        5.4005098891412635E-016
 chl          35   4.2504984372923972E-021   8.5739362072938641E-021  0.49574644999999995     
 chl2c          36  0.69587337500000002        3.7770393924465726E-002  0.69587337500000002        0.0000000000000000        8.8068941909890699E-016
 chl          36   5.9659692550643067E-021   8.5733546783052397E-021  0.69587337500000002     
 chl2c          37  0.33194060000000003        2.1353674699533250E-002  0.33194060000000003        0.0000000000000000        5.3891124349551681E-016
 chl          37   2.8460375290108500E-021   8.5739362072938641E-021  0.33194060000000003     
 chl2c          38  0.38455722500000000        2.1543295686358745E-002  0.38455722500000000        0.0000000000000000        5.4369823638396077E-016
 chl          38   3.2971691152039531E-021   8.5739362072938641E-021  0.38455722500000000     
 chl2c          39  0.47091117500000002        2.5670077108751441E-002  0.47091117500000002        0.0000000000000000        5.4155663713571624E-016
 chl          39   4.0375623737517973E-021   8.5739362072938641E-021  0.47091117500000002     
 chl2c          40  0.66875547499999999        3.7687445774703773E-002  0.66875547499999999        0.0000000000000000        1.0477499673882216E-005
 chl          40   5.7334778802335097E-021   8.5733546783052653E-021  0.66875547499999999     
 chl2c          41  0.44304987499999998        2.5582381488167241E-002  0.44304987499999998        0.0000000000000000        6.0413289085993659E-006
 chl          41   3.7986813648995270E-021   8.5739362072938792E-021  0.44304987499999998     
 chl2c          42  0.76234377499999995        3.7949995630725070E-002  0.76234377499999995        0.0000000000000000        1.1112921232954293E-005
 chl          42   6.5358435698731516E-021   8.5733546783052729E-021  0.76234377499999995     
 chl2c          43  0.29539925000000000        2.1185090152268007E-002  0.29539925000000000        0.0000000000000000        5.4366008140999620E-016
 chl          43   2.5327343251824572E-021   8.5739362072938822E-021  0.29539925000000000     
 chl2c          44  0.62417262500000004        3.7536352708156646E-002  0.62417262500000004        0.0000000000000000        1.0707346706008413E-005
 chl          44   5.3512532946138171E-021   8.5733546783052473E-021  0.62417262500000004     
 chl2c          45  0.37662252499999999        4.6544927192009838E-002  0.37662252499999999        0.0000000000000000        2.6712342116096206E-019
 chl          45   3.2291375035799383E-021   8.5739362072938641E-021  0.37662252499999999     
 chl2c          46  0.51876034999999998        3.7083195475449568E-002  0.51876034999999998        0.0000000000000000        9.3633199857500679E-016
 chl          46   4.4475164735917631E-021   8.5733546783052397E-021  0.51876034999999998     
 chl2c          47  0.61962282499999999        3.7519784612651236E-002  0.61962282499999999        0.0000000000000000        4.9866760128638837E-006
 chl          47   5.3122462454984591E-021   8.5733546783052397E-021  0.61962282499999999     
 chl2c          48  0.71424949999999998        3.7823212136301673E-002  0.71424949999999998        0.0000000000000000        1.1126350877601705E-005
 chl          48   6.1235142923021964E-021   8.5733546783052653E-021  0.71424949999999998     
 chl2c          49  0.53276120000000005        3.7152990741888416E-002  0.53276120000000005        0.0000000000000000        5.4086814848104544E-006
 chl          49   4.5675507264395142E-021   8.5733546783052397E-021  0.53276120000000005     
 chl2c          50  0.38132569999999999        2.1533072915600981E-002  0.38132569999999999        0.0000000000000000        5.4081536952753910E-016
 chl          50   3.2694622260016817E-021   8.5739362072938747E-021  0.38132569999999999     
 chl2c          51  0.22275920000000002        2.0700971146093840E-002  0.22275920000000002        0.0000000000000000        5.4422282440626560E-016
 chl          51   1.9099231703878156E-021   8.5739362072938641E-021  0.22275920000000002     
 chl2c          52  0.63698869999999996        3.7581825176985564E-002  0.63698869999999996        0.0000000000000000        1.0466343110207387E-005
 chl          52   5.4611300511725863E-021   8.5733546783052608E-021  0.63698869999999996     
 chl2c          53  0.75269794999999995        3.7925801262726190E-002  0.75269794999999995        0.0000000000000000        1.0477593377375735E-005
 chl          53   6.4531464909832868E-021   8.5733546783052713E-021  0.75269794999999995     
 chl2c          54  0.51861124999999997        3.7082433371327092E-002  0.51861124999999997        0.0000000000000000        5.6910461326008456E-006
 chl          54   4.4462381864092278E-021   8.5733546783052397E-021  0.51861124999999997     
 chl2c          55  0.57808280000000001        3.7357235588660491E-002  0.57808280000000001        0.0000000000000000        9.3785047913650847E-016
 chl          55   4.9561088778278052E-021   8.5733546783052623E-021  0.57808280000000001     
 chl2c          56  0.61626080000000005        3.7507394187257688E-002  0.61626080000000005        0.0000000000000000        8.8068941909890699E-016
 chl          56   5.2834224127361303E-021   8.5733546783052397E-021  0.61626080000000005     
 chl2c          57  0.68163462500000005        3.7727617852646313E-002  0.68163462500000005        0.0000000000000000        9.3832778310610354E-016
 chl          57   5.8438954011385885E-021   8.5733546783052397E-021  0.68163462500000005     
 chl2c          58  0.69416802499999997        3.7765358178394853E-002  0.69416802499999997        0.0000000000000000        1.7354285081925329E-006
 chl          58   5.9513486846636825E-021   8.5733546783052744E-021  0.69416802499999997     
 chl2c          59  0.53705127500000005        3.7173699120809672E-002  0.53705127500000005        0.0000000000000000        1.0041428906595599E-005
 chl          59   4.6043310610110611E-021   8.5733546783052713E-021  0.53705127500000005     
 chl2c          60  0.64452155000000000        3.7607757740906807E-002  0.64452155000000000        0.0000000000000000        3.3838204655435810E-006
 chl          60   5.5257118459610671E-021   8.5733546783052744E-021  0.64452155000000000     
 chl2c          61  0.70794139999999994        3.7805373434125003E-002  0.70794139999999994        0.0000000000000000        9.3463935547360256E-016
 chl          61   6.0694327136559608E-021   8.5733546783052397E-021  0.70794139999999994     
 chl2c          62  0.76481592499999995        3.7956103087269030E-002  0.76481592499999995        0.0000000000000000        1.1032589000796570E-005
 chl          62   6.5570381886411200E-021   8.5733546783052668E-021  0.76481592499999995     
 chl2c          63  0.72597904999999996        3.7855601011927406E-002  0.72597904999999996        0.0000000000000000        8.8068941909890699E-016
 chl          63   6.2240758846691181E-021   8.5733546783052744E-021  0.72597904999999996     
 chl2c          64  0.48435739999999999        2.5708982294816416E-002  0.48435739999999999        0.0000000000000000        5.3701187114985665E-016
 chl          64   4.1528494491307171E-021   8.5739362072938641E-021  0.48435739999999999     
 chl2c          65  0.76379975000000000        3.7953597170552002E-002  0.76379975000000000        0.0000000000000000        9.4679874350127971E-006
 chl          65   6.5483261599509013E-021   8.5733546783052774E-021  0.76379975000000000     
 chl2c          66  0.35213202499999996        3.1840477731474713E-002  0.35213202499999996        0.0000000000000000        2.1967756975538245E-019
 chl          66   3.0191575188952079E-021   8.5739362072938641E-021  0.35213202499999996     
 chl2c          67  0.75736760000000003        3.7937587124568600E-002  0.75736760000000003        0.0000000000000000        5.6236705812981217E-006
 chl          67   6.4931810566568116E-021   8.5733546783052397E-021  0.75736760000000003     
 chl2c          68  0.72590779999999999        3.7855407263856986E-002  0.72590779999999999        0.0000000000000000        2.9243898699565665E-006
 chl          68   6.2234650331482903E-021   8.5733546783052759E-021  0.72590779999999999     
 chl2c          69  0.45524217500000003        2.1732330561541505E-002  0.45524217500000003        0.0000000000000000        5.3964182611237936E-016
 chl          69   3.9032173673197101E-021   8.5739362072938641E-021  0.45524217500000003     
 chl2c          70  0.48694062500000002        3.2658010878182209E-002  0.48694062500000002        0.0000000000000000        1.6827631256752152E-008
 chl          70   4.1749978554898040E-021   8.5739362072938641E-021  0.48694062500000002     
 chl2c          71  0.23986107500000001        4.3481058864416305E-002  0.23986107500000001        0.0000000000000000        1.5350618182800662E-009
 chl          71   2.0565535556629290E-021   8.5739362072938641E-021  0.23986107500000001     
 chl2c          72  0.62790522500000001        3.7549776402781669E-002  0.62790522500000001        0.0000000000000000        1.0432867702065819E-005
 chl          72   5.3832541982860648E-021   8.5733546783052563E-021  0.62790522500000001     
 chl2c          73  0.35362212500000001        3.1852614277819484E-002  0.35362212500000001        0.0000000000000000        2.7588003418938595E-019
 chl          73   3.0319335412376970E-021   8.5739362072938641E-021  0.35362212500000001     
 chl2c          74  0.64719590000000005        3.7616827685877569E-002  0.64719590000000005        0.0000000000000000        3.6041244378371294E-006
 chl          74   5.5486399970449941E-021   8.5733546783052759E-021  0.64719590000000005     
 chl2c          75  0.71554212500000003        3.7826830779512356E-002  0.71554212500000003        0.0000000000000000        8.8068941909890699E-016
 chl          75   6.1345964248932230E-021   8.5733546783052397E-021  0.71554212500000003     
 chl2c          76  0.55513977500000000        3.7257729557919804E-002  0.55513977500000000        0.0000000000000000        8.8068941909890699E-016
 chl          76   4.7594101871095721E-021   8.5733546783052473E-021  0.55513977500000000     
 chl2c          77  0.52973029999999999        3.7138172437479272E-002  0.52973029999999999        0.0000000000000000        6.5420840425200655E-006
 chl          77   4.5415657457450548E-021   8.5733546783052713E-021  0.52973029999999999     
 chl2c          78  0.45117492500000000        4.7515248899399322E-002  0.45117492500000000        0.0000000000000000        3.4371785010637760E-018
 chl          78   3.8683450252805935E-021   8.5739362072938641E-021  0.45117492500000000     
 prod   9.9718245562424337E-010   0.0000000000000000        10.000000000000000     
 chl2c           1  0.60826437499999997        3.7477407714772232E-002  0.60826437499999997        0.0000000000000000        3.6254626821937463E-006
 chl           1   5.0315515859841629E-016   8.2719813830691029E-016  0.60826437499999997     
 chl2c           2  0.48302390000000001        3.2640259920490348E-002  0.48302390000000001        0.0000000000000000        1.8693924342126785E-019
 chl           2   3.9961220422171505E-016   8.2731352262634424E-016  0.48302390000000001     
 chl2c           3  0.75128689999999998        3.7922212503796585E-002  0.75128689999999998        0.0000000000000000        1.2839266463521762E-006
 chl           3   6.2146312501436986E-016   8.2719813830691029E-016  0.75128689999999998     
 chl2c           4  0.77318742499999993        3.7976509103863923E-002  0.77318742499999993        0.0000000000000000        9.1266969331120396E-016
 chl           4   6.3957919852231382E-016   8.2719813830691029E-016  0.77318742499999993     
 chl2c           5  0.48489679999999996        2.5710500362372445E-002  0.48489679999999996        0.0000000000000000        5.3956951624055645E-016
 chl           5   4.0116167971824190E-016   8.2731352262634424E-016  0.48489679999999996     
 chl2c           6  0.29222855000000003        3.1261039902252048E-002  0.29222855000000003        0.0000000000000000        2.8624177249538853E-008
 chl           6   2.4176463111248879E-016   8.2731352262634424E-016  0.29222855000000003     
 chl2c           7  0.22770740000000000        4.3064391842467263E-002  0.22770740000000000        0.0000000000000000        1.8241394918079227E-019
 chl           7   1.8838541122208601E-016   8.2731352262634424E-016  0.22770740000000000     
 chl2c           8  0.49578364999999996        4.7969800906495587E-002  0.49578364999999996        0.0000000000000000        1.9382381096625048E-019
 chl           8   4.1016851794204653E-016   8.2731352262634424E-016  0.49578364999999996     
 chl2c           9  0.28700202499999999        2.4803669054600401E-002  0.28700202499999999        0.0000000000000000        5.4184070904694738E-016
 chl           9   2.3744065630364412E-016   8.2731352262634424E-016  0.28700202499999999     
 chl2c          10  0.39094662499999999        2.5387016219684602E-002  0.39094662499999999        0.0000000000000000        5.4184857260388419E-016
 chl          10   3.2343542948763042E-016   8.2731352262634424E-016  0.39094662499999999     
 chl2c          11  0.49737575000000001        2.1820572217820047E-002  0.49737575000000001        0.0000000000000000        7.0015697315486491E-007
 chl          11   4.1148568380141992E-016   8.2731352262634424E-016  0.49737575000000001     
 chl2c          12  0.30768942500000002        4.5290941298723353E-002  0.30768942500000002        0.0000000000000000        2.0200627098756988E-009
 chl          12   2.5455562207162436E-016   8.2731352262634424E-016  0.30768942500000002     
 chl2c          13  0.75666275000000005        3.7935816987997487E-002  0.75666275000000005        0.0000000000000000        9.8176998161545304E-006
 chl          13   6.2591001812618698E-016   8.2719813830691009E-016  0.75666275000000005     
 chl2c          14  0.39804095000000000        4.6856526101924839E-002  0.39804095000000000        0.0000000000000000        2.3760009003738055E-018
 chl          14   3.2930466049403656E-016   8.2731352262634424E-016  0.39804095000000000     
 chl2c          15  0.25607262500000000        2.0954299823745293E-002  0.25607262500000000        0.0000000000000000        5.4323449796731709E-016
 chl          15   2.1185234543692486E-016   8.2731352262634424E-016  0.25607262500000000     
 chl2c          16  0.71433214999999994        3.7823443882273475E-002  0.71433214999999994        0.0000000000000000        9.5538533126458323E-006
 chl          16   5.9089422461277259E-016   8.2719813830691029E-016  0.71433214999999994     
 chl2c          17  0.62580860000000005        3.7542254757581245E-002  0.62580860000000005        0.0000000000000000        7.6691545757577153E-006
 chl          17   5.1766770885645393E-016   8.2719813830691029E-016  0.62580860000000005     
 chl2c          18  0.47925950000000000        2.5694475239060960E-002  0.47925950000000000        0.0000000000000000        5.4264462683170823E-016
 chl          18   3.9649786519714046E-016   8.2731352262634424E-016  0.47925950000000000     
 chl2c          19  0.63367130000000005        3.7570220750293731E-002  0.63367130000000005        0.0000000000000000        9.1266969331120396E-016
 chl          19   5.2417171965851965E-016   8.2719813830691029E-016  0.63367130000000005     
 chl2c          20  0.50678202500000002        3.7020645196759419E-002  0.50678202500000002        0.0000000000000000        9.8509817363475885E-006
 chl          20   4.1920914760740599E-016   8.2719813830691009E-016  0.50678202500000002     
 chl2c          21  0.71973185000000006        3.7838475073783531E-002  0.71973185000000006        0.0000000000000000        9.3329239069114903E-016
 chl          21   5.9536084640018829E-016   8.2719813830691009E-016  0.71973185000000006     
 chl2c          22  0.64616892500000001        3.7613353106285476E-002  0.64616892500000001        0.0000000000000000        9.1266969331120396E-016
 chl          22   5.3450973179177757E-016   8.2719813830691029E-016  0.64616892500000001     
 chl2c          23  0.41564179999999995        3.2286562315070731E-002  0.41564179999999995        0.0000000000000000        1.7771715989791972E-009
 chl          23   3.4386608170875439E-016   8.2731352262634424E-016  0.41564179999999995     
 chl2c          24  0.57597492500000003        3.7348402796863071E-002  0.57597492500000003        0.0000000000000000        9.2824384324656649E-016
 chl          24   4.7644538567146216E-016   8.2719813830691009E-016  0.57597492500000003     
 chl2c          25  0.31406487500000002        4.5426679235459781E-002  0.31406487500000002        0.0000000000000000        1.4335377258547014E-009
 chl          25   2.5983011806945251E-016   8.2731352262634424E-016  0.31406487500000002     
 chl2c          26  0.49427735000000000        4.7955660680174553E-002  0.49427735000000000        0.0000000000000000        1.6716547941029732E-009
 chl          26   4.0892233558291449E-016   8.2731352262634424E-016  0.49427735000000000     
 chl2c          27  0.30964730000000001        4.5333133499525620E-002  0.30964730000000001        0.0000000000000000        1.6571230580571242E-008
 chl          27   2.5617539853473642E-016   8.2731352262634424E-016  0.30964730000000001     
 chl2c          28  0.28776342500000002        3.1209236063453518E-002  0.28776342500000002        0.0000000000000000        2.3333110603765564E-008
 chl          28   2.3807057281977181E-016   8.2731352262634424E-016  0.28776342500000002     
 chl2c          29  0.68676297499999994        3.7743217595736761E-002  0.68676297499999994        0.0000000000000000        9.3416903506510797E-016
 chl          29   5.6808905437811501E-016   8.2719813830691009E-016  0.68676297499999994     
 chl2c          30  0.38930277499999999        2.5380056985171612E-002  0.38930277499999999        0.0000000000000000        3.0476147533796905E-006
 chl          30   3.2207545015346109E-016   8.2731352262634424E-016  0.38930277499999999     
 chl2c          31  0.63559385000000002        3.7576959810037038E-002  0.63559385000000002        0.0000000000000000        9.3635892259310244E-016
 chl          31   5.2576204943932146E-016   8.2719813830691009E-016  0.63559385000000002     
 chl2c          32  0.24722667500000001        2.0893126428578448E-002  0.24722667500000001        0.0000000000000000        5.4365800013448709E-016
 chl          32   2.0453397138144835E-016   8.2731352262634424E-016  0.24722667500000001     
 chl2c          33  0.60343137499999999        3.7458922634011876E-002  0.60343137499999999        0.0000000000000000        9.2987482927309167E-016
 chl          33   4.9915730999597888E-016   8.2719813830691009E-016  0.60343137499999999     
 chl2c          34  0.38241020000000003        2.5350269098008315E-002  0.38241020000000003        0.0000000000000000        5.3925602045857622E-016
 chl          34   3.1637312965024484E-016   8.2731352262634424E-016  0.38241020000000003     
 chl2c          35  0.49574644999999995        2.5740370148566064E-002  0.49574644999999995        0.0000000000000000        5.4005098876823688E-016
 chl          35   4.1013774187900481E-016   8.2731352262634424E-016  0.49574644999999995     
 chl2c          36  0.69587337500000002        3.7770393924465726E-002  0.69587337500000002        0.0000000000000000        9.1266969331120396E-016
 chl          36   5.7562516029734646E-016   8.2719813830691029E-016  0.69587337500000002     
 chl2c          37  0.33194060000000003        2.1353674699533250E-002  0.33194060000000003        0.0000000000000000        5.3891124333498076E-016
 chl          37   2.7461894708870233E-016   8.2731352262634424E-016  0.33194060000000003     
 chl2c          38  0.38455722500000000        2.1543295686358745E-002  0.38455722500000000        0.0000000000000000        5.4369823628536627E-016
 chl          38   3.1814939246616168E-016   8.2731352262634424E-016  0.38455722500000000     
 chl2c          39  0.47091117500000002        2.5670077108751441E-002  0.47091117500000002        0.0000000000000000        5.4155663700927259E-016
 chl          39   3.8959118303336086E-016   8.2731352262634424E-016  0.47091117500000002     
 chl2c          40  0.66875547499999999        3.7687445774703773E-002  0.66875547499999999        0.0000000000000000        9.5550702778430043E-006
 chl          40   5.5319328390255349E-016   8.2719813830691029E-016  0.66875547499999999     
 chl2c          41  0.44304987499999998        2.5582381488167241E-002  0.44304987499999998        0.0000000000000000        2.2002191337840751E-006
 chl          41   3.6654115278541148E-016   8.2731352262634424E-016  0.44304987499999998     
 chl2c          42  0.76234377499999995        3.7949995630725070E-002  0.76234377499999995        0.0000000000000000        9.7003426762927256E-006
 chl          42   6.3060935142986189E-016   8.2719813830691009E-016  0.76234377499999995     
 chl2c          43  0.29539925000000000        2.1185090152268007E-002  0.29539925000000000        0.0000000000000000        5.4366008131090364E-016
 chl          43   2.4438779409868014E-016   8.2731352262634424E-016  0.29539925000000000     
 chl2c          44  0.62417262500000004        3.7536352708156646E-002  0.62417262500000004        0.0000000000000000        9.7800265456410104E-006
 chl          44   5.1631443338213719E-016   8.2719813830691009E-016  0.62417262500000004     
 chl2c          45  0.37662252499999999        4.6544927192009838E-002  0.37662252499999999        0.0000000000000000        2.4567511556778812E-019
 chl          45   3.1158490785817838E-016   8.2731352262634424E-016  0.37662252499999999     
 chl2c          46  0.51876034999999998        3.7083195475449568E-002  0.51876034999999998        0.0000000000000000        9.3633199820798709E-016
 chl          46   4.2911759574744107E-016   8.2719813830691009E-016  0.51876034999999998     
 chl2c          47  0.61962282499999999        3.7519784612651236E-002  0.61962282499999999        0.0000000000000000        8.7501568626994088E-006
 chl          47   5.1255084729246831E-016   8.2719813830691009E-016  0.61962282499999999     
 chl2c          48  0.71424949999999998        3.7823212136301673E-002  0.71424949999999998        0.0000000000000000        9.8376130354176436E-006
 chl          48   5.9082585668664135E-016   8.2719813830691009E-016  0.71424949999999998     
 chl2c          49  0.53276120000000005        3.7152990741888416E-002  0.53276120000000005        0.0000000000000000        8.8749047177484718E-006
 chl          49   4.4069907280215543E-016   8.2719813830691009E-016  0.53276120000000005     
 chl2c          50  0.38132569999999999        2.1533072915600981E-002  0.38132569999999999        0.0000000000000000        5.4081536939150783E-016
 chl          50   3.1547590813495656E-016   8.2731352262634424E-016  0.38132569999999999     
 chl2c          51  0.22275920000000002        2.0700971146093840E-002  0.22275920000000002        0.0000000000000000        5.4422282431452689E-016
 chl          51   1.8429169844942637E-016   8.2731352262634424E-016  0.22275920000000002     
 chl2c          52  0.63698869999999996        3.7581825176985564E-002  0.63698869999999996        0.0000000000000000        9.6057501905056757E-006
 chl          52   5.2691586676253895E-016   8.2719813830691029E-016  0.63698869999999996     
 chl2c          53  0.75269794999999995        3.7925801262726190E-002  0.75269794999999995        0.0000000000000000        9.3717405186953973E-006
 chl          53   6.2263034294742776E-016   8.2719813830691029E-016  0.75269794999999995     
 chl2c          54  0.51861124999999997        3.7082433371327092E-002  0.51861124999999997        0.0000000000000000        8.9324892354272930E-006
 chl          54   4.2899426050501950E-016   8.2719813830691009E-016  0.51861124999999997     
 chl2c          55  0.57808280000000001        3.7357235588660491E-002  0.57808280000000001        0.0000000000000000        9.3785047878870660E-016
 chl          55   4.7818901594724590E-016   8.2719813830691009E-016  0.57808280000000001     
 chl2c          56  0.61626080000000005        3.7507394187257688E-002  0.61626080000000005        0.0000000000000000        9.1266969331120396E-016
 chl          56   5.0976978647152727E-016   8.2719813830691029E-016  0.61626080000000005     
 chl2c          57  0.68163462500000005        3.7727617852646313E-002  0.68163462500000005        0.0000000000000000        9.3832778276435578E-016
 chl          57   5.6384689280552884E-016   8.2719813830691009E-016  0.68163462500000005     
 chl2c          58  0.69416802499999997        3.7765358178394853E-002  0.69416802499999997        0.0000000000000000        9.1266969331120396E-016
 chl          58   5.7421449795218473E-016   8.2719813830691029E-016  0.69416802499999997     
 chl2c          59  0.53705127500000005        3.7173699120809672E-002  0.53705127500000005        0.0000000000000000        4.5105490895102424E-006
 chl          59   4.4424781485535246E-016   8.2719813830691009E-016  0.53705127500000005     
 chl2c          60  0.64452155000000000        3.7607757740906807E-002  0.64452155000000000        0.0000000000000000        9.2749795927878683E-016
 chl          60   5.3314702625868411E-016   8.2719813830691009E-016  0.64452155000000000     
 chl2c          61  0.70794139999999994        3.7805373434125003E-002  0.70794139999999994        0.0000000000000000        1.3883560432258946E-006
 chl          61   5.8560780811038750E-016   8.2719813830691009E-016  0.70794139999999994     
 chl2c          62  0.76481592499999995        3.7956103087269030E-002  0.76481592499999995        0.0000000000000000        9.7487185605408898E-006
 chl          62   6.3265430930747730E-016   8.2719813830691009E-016  0.76481592499999995     
 chl2c          63  0.72597904999999996        3.7855601011927406E-002  0.72597904999999996        0.0000000000000000        9.1266969331120396E-016
 chl          63   6.0052851860981931E-016   8.2719813830691029E-016  0.72597904999999996     
 chl2c          64  0.48435739999999999        2.5708982294816416E-002  0.48435739999999999        0.0000000000000000        5.3701187096505287E-016
 chl          64   4.0071542680413728E-016   8.2731352262634424E-016  0.48435739999999999     
 chl2c          65  0.76379975000000000        3.7953597170552002E-002  0.76379975000000000        0.0000000000000000        4.5086018728911256E-006
 chl          65   6.3181373123928355E-016   8.2719813830691029E-016  0.76379975000000000     
 chl2c          66  0.35213202499999996        3.1840477731474713E-002  0.35213202499999996        0.0000000000000000        2.0203746598178158E-019
 chl          66   2.9132358603229787E-016   8.2731352262634424E-016  0.35213202499999996     
 chl2c          67  0.75736760000000003        3.7937587124568600E-002  0.75736760000000003        0.0000000000000000        8.9453146946602824E-006
 chl          67   6.2649306873397260E-016   8.2719813830691009E-016  0.75736760000000003     
 chl2c          68  0.72590779999999999        3.7855407263856986E-002  0.72590779999999999        0.0000000000000000        9.1266969331120396E-016
 chl          68   6.0046958074246499E-016   8.2719813830691029E-016  0.72590779999999999     
 chl2c          69  0.45524217500000003        2.1732330561541505E-002  0.45524217500000003        0.0000000000000000        5.3964182596122464E-016
 chl          69   3.7662800744732868E-016   8.2731352262634424E-016  0.45524217500000003     
 chl2c          70  0.48694062500000002        3.2658010878182209E-002  0.48694062500000002        0.0000000000000000        2.8920763216461670E-008
 chl          70   4.0285256377862373E-016   8.2731352262634424E-016  0.48694062500000002     
 chl2c          71  0.23986107500000001        4.3481058864416305E-002  0.23986107500000001        0.0000000000000000        2.2593476312862914E-019
 chl          71   1.9844031089919175E-016   8.2731352262634424E-016  0.23986107500000001     
 chl2c          72  0.62790522500000001        3.7549776402781669E-002  0.62790522500000001        0.0000000000000000        9.6116505354517841E-006
 chl          72   5.1940203315318161E-016   8.2719813830691029E-016  0.62790522500000001     
 chl2c          73  0.35362212500000001        3.1852614277819484E-002  0.35362212500000001        0.0000000000000000        2.5372895230624004E-019
 chl          73   2.9255636591236342E-016   8.2731352262634424E-016  0.35362212500000001     
 chl2c          74  0.64719590000000005        3.7616827685877569E-002  0.64719590000000005        0.0000000000000000        9.3433138718191835E-016
 chl          74   5.3535924359986520E-016   8.2719813830691009E-016  0.64719590000000005     
 chl2c          75  0.71554212500000003        3.7826830779512356E-002  0.71554212500000003        0.0000000000000000        9.1266969331120396E-016
 chl          75   5.9189511368017053E-016   8.2719813830691029E-016  0.71554212500000003     
 chl2c          76  0.55513977500000000        3.7257729557919804E-002  0.55513977500000000        0.0000000000000000        9.1266969331120396E-016
 chl          76   4.5921058838011704E-016   8.2719813830691029E-016  0.55513977500000000     
 chl2c          77  0.52973029999999999        3.7138172437479272E-002  0.52973029999999999        0.0000000000000000        9.2657738026484766E-016
 chl          77   4.3819191796476098E-016   8.2719813830691009E-016  0.52973029999999999     
 chl2c          78  0.45117492500000000        4.7515248899399322E-002  0.45117492500000000        0.0000000000000000        2.9887236922689157E-018
 chl          78   3.7326311652242666E-016   8.2731352262634424E-016  0.45117492500000000     
 prod   9.1707936355365626E-010   0.0000000000000000        10.000000000000000     
 chl2c           1  0.60826437499999997        3.7477407714772232E-002  0.60826437499999997        0.0000000000000000        9.3035873392344904E-016
 chl           1   1.5723614539428594E-010   2.5849967852265874E-010  0.60826437499999997     
 chl2c           2  0.48302390000000001        3.2640259920490348E-002  0.48302390000000001        0.0000000000000000        1.5156896054606218E-019
 chl           2   1.2487893966207151E-010   2.5853573635191033E-010  0.48302390000000001     
 chl2c           3  0.75128689999999998        3.7922212503796585E-002  0.75128689999999998        0.0000000000000000        5.9665906816455104E-006
 chl           3   1.9420742212828487E-010   2.5849967852265874E-010  0.75128689999999998     
 chl2c           4  0.77318742499999993        3.7976509103863923E-002  0.77318742499999993        0.0000000000000000        9.3035873392344904E-016
 chl           4   1.9986870080026230E-010   2.5849967852265874E-010  0.77318742499999993     
 chl2c           5  0.48489679999999996        2.5710500362372445E-002  0.48489679999999996        0.0000000000000000        5.3956951590764768E-016
 chl           5   1.2536315124268498E-010   2.5853573635191033E-010  0.48489679999999996     
 chl2c           6  0.29222855000000003        3.1261039902252048E-002  0.29222855000000003        0.0000000000000000        4.2454727824759416E-009
 chl           6   7.5551523357301047E-011   2.5853573635191033E-010  0.29222855000000003     
 chl2c           7  0.22770740000000000        4.3064391842467263E-002  0.22770740000000000        0.0000000000000000        1.4789965549043042E-019
 chl           7   5.8870500331778994E-011   2.5853573635191033E-010  0.22770740000000000     
 chl2c           8  0.49578364999999996        4.7969800906495587E-002  0.49578364999999996        0.0000000000000000        1.5715128870842276E-019
 chl           8   1.2817779102398779E-010   2.5853573635191033E-010  0.49578364999999996     
 chl2c           9  0.28700202499999999        2.4803669054600401E-002  0.28700202499999999        0.0000000000000000        5.4184070877822349E-016
 chl           9   7.4200279867864379E-011   2.5853573635191033E-010  0.28700202499999999     
 chl2c          10  0.39094662499999999        2.5387016219684602E-002  0.39094662499999999        0.0000000000000000        5.4184857233538344E-016
 chl          10   1.0107367356866916E-010   2.5853573635191033E-010  0.39094662499999999     
 chl2c          11  0.49737575000000001        2.1820572217820047E-002  0.49737575000000001        0.0000000000000000        4.1497485572576667E-006
 chl          11   1.2858940576983366E-010   2.5853573635191033E-010  0.49737575000000001     
 chl2c          12  0.30768942500000002        4.5290941298723353E-002  0.30768942500000002        0.0000000000000000        1.2692828639708794E-009
 chl          12   7.9548712060070895E-011   2.5853573635191033E-010  0.30768942500000002     
 chl2c          13  0.75666275000000005        3.7935816987997487E-002  0.75666275000000005        0.0000000000000000        8.4566957855702727E-006
 chl          13   1.9559707762507088E-010   2.5849967852265869E-010  0.75666275000000005     
 chl2c          14  0.39804095000000000        4.6856526101924839E-002  0.39804095000000000        0.0000000000000000        1.7708933741058076E-018
 chl          14   1.0290781010646392E-010   2.5853573635191033E-010  0.39804095000000000     
 chl2c          15  0.25607262500000000        2.0954299823745293E-002  0.25607262500000000        0.0000000000000000        5.4323449773825447E-016
 chl          15   6.6203924663941603E-011   2.5853573635191033E-010  0.25607262500000000     
 chl2c          16  0.71433214999999994        3.7823443882273475E-002  0.71433214999999994        0.0000000000000000        7.5472900204637280E-006
 chl          16   1.8465463113339962E-010   2.5849967852265874E-010  0.71433214999999994     
 chl2c          17  0.62580860000000005        3.7542254757581245E-002  0.62580860000000005        0.0000000000000000        8.5511293873544699E-006
 chl          17   1.6177132191671514E-010   2.5849967852265874E-010  0.62580860000000005     
 chl2c          18  0.47925950000000000        2.5694475239060960E-002  0.47925950000000000        0.0000000000000000        5.4264462658583508E-016
 chl          18   1.2390570773614838E-010   2.5853573635191033E-010  0.47925950000000000     
 chl2c          19  0.63367130000000005        3.7570220750293731E-002  0.63367130000000005        0.0000000000000000        9.2840765741761399E-016
 chl          19   1.6380382733903526E-010   2.5849967852265874E-010  0.63367130000000005     
 chl2c          20  0.50678202500000002        3.7020645196759419E-002  0.50678202500000002        0.0000000000000000        8.6734504372775512E-006
 chl          20   1.3100299054356198E-010   2.5849967852265869E-010  0.50678202500000002     
 chl2c          21  0.71973185000000006        3.7838475073783531E-002  0.71973185000000006        0.0000000000000000        9.3329238980396667E-016
 chl          21   1.8605045184751843E-010   2.5849967852265869E-010  0.71973185000000006     
 chl2c          22  0.64616892500000001        3.7613353106285476E-002  0.64616892500000001        0.0000000000000000        9.3035873392344904E-016
 chl          22   1.6703445938383198E-010   2.5849967852265874E-010  0.64616892500000001     
 chl2c          23  0.41564179999999995        3.2286562315070731E-002  0.41564179999999995        0.0000000000000000        2.1634279526792804E-019
 chl          23   1.0745825882163343E-010   2.5853573635191033E-010  0.41564179999999995     
 chl2c          24  0.57597492500000003        3.7348402796863071E-002  0.57597492500000003        0.0000000000000000        3.9819832630942554E-006
 chl          24   1.4888933294961246E-010   2.5849967852265869E-010  0.57597492500000003     
 chl2c          25  0.31406487500000002        4.5426679235459781E-002  0.31406487500000002        0.0000000000000000        1.6478906883497244E-019
 chl          25   8.1196993720395684E-011   2.5853573635191033E-010  0.31406487500000002     
 chl2c          26  0.49427735000000000        4.7955660680174553E-002  0.49427735000000000        0.0000000000000000        1.3964910845413670E-009
 chl          26   1.2778835864432091E-010   2.5853573635191033E-010  0.49427735000000000     
 chl2c          27  0.30964730000000001        4.5333133499525620E-002  0.30964730000000001        0.0000000000000000        1.6171643376975421E-008
 chl          27   8.0054892714880883E-011   2.5853573635191033E-010  0.30964730000000001     
 chl2c          28  0.28776342500000002        3.1209236063453518E-002  0.28776342500000002        0.0000000000000000        1.6306860514056084E-008
 chl          28   7.4397128977522724E-011   2.5853573635191033E-010  0.28776342500000002     
 chl2c          29  0.68676297499999994        3.7743217595736761E-002  0.68676297499999994        0.0000000000000000        9.3416903420203261E-016
 chl          29   1.7752800825876468E-010   2.5849967852265869E-010  0.68676297499999994     
 chl2c          30  0.38930277499999999        2.5380056985171612E-002  0.38930277499999999        0.0000000000000000        4.9026704418840257E-006
 chl          30   1.0064867959846706E-010   2.5853573635191033E-010  0.38930277499999999     
 chl2c          31  0.63559385000000002        3.7576959810037038E-002  0.63559385000000002        0.0000000000000000        9.3635892179045087E-016
 chl          31   1.6430080589597897E-010   2.5849967852265869E-010  0.63559385000000002     
 chl2c          32  0.24722667500000001        2.0893126428578448E-002  0.24722667500000001        0.0000000000000000        5.4365799991751651E-016
 chl          32   6.3916930466959427E-011   2.5853573635191033E-010  0.24722667500000001     
 chl2c          33  0.60343137499999999        3.7458922634011876E-002  0.60343137499999999        0.0000000000000000        9.2987482829237743E-016
 chl          33   1.5598681644798589E-010   2.5849967852265869E-010  0.60343137499999999     
 chl2c          34  0.38241020000000003        2.5350269098008315E-002  0.38241020000000003        0.0000000000000000        5.3925602011685104E-016
 chl          34   9.8866702645481304E-011   2.5853573635191033E-010  0.38241020000000003     
 chl2c          35  0.49574644999999995        2.5740370148566064E-002  0.49574644999999995        0.0000000000000000        2.6438238409546376E-006
 chl          35   1.2816817349459549E-010   2.5853573635191033E-010  0.49574644999999995     
 chl2c          36  0.69587337500000002        3.7770393924465726E-002  0.69587337500000002        0.0000000000000000        4.1336436832137562E-006
 chl          36   1.7988304372997757E-010   2.5849967852265874E-010  0.69587337500000002     
 chl2c          37  0.33194060000000003        2.1353674699533250E-002  0.33194060000000003        0.0000000000000000        5.3891124298357162E-016
 chl          37   8.5818507446094929E-011   2.5853573635191033E-010  0.33194060000000003     
 chl2c          38  0.38455722500000000        2.1543295686358745E-002  0.38455722500000000        0.0000000000000000        1.7434948359480367E-006
 chl          38   9.9421785334822259E-011   2.5853573635191033E-010  0.38455722500000000     
 chl2c          39  0.47091117500000002        2.5670077108751441E-002  0.47091117500000002        0.0000000000000000        2.9640541072658435E-007
 chl          39   1.2174736738496831E-010   2.5853573635191033E-010  0.47091117500000002     
 chl2c          40  0.66875547499999999        3.7687445774703773E-002  0.66875547499999999        0.0000000000000000        7.5578302913345032E-006
 chl          40   1.7287307529776795E-010   2.5849967852265874E-010  0.66875547499999999     
 chl2c          41  0.44304987499999998        2.5582381488167241E-002  0.44304987499999998        0.0000000000000000        5.3742548856302750E-016
 chl          41   1.1454422567374682E-010   2.5853573635191033E-010  0.44304987499999998     
 chl2c          42  0.76234377499999995        3.7949995630725070E-002  0.76234377499999995        0.0000000000000000        7.0424912683155274E-006
 chl          42   1.9706562076125003E-010   2.5849967852265869E-010  0.76234377499999995     
 chl2c          43  0.29539925000000000        2.1185090152268007E-002  0.29539925000000000        0.0000000000000000        5.4366008109399263E-016
 chl          43   7.6371262616552054E-011   2.5853573635191033E-010  0.29539925000000000     
 chl2c          44  0.62417262500000004        3.7536352708156646E-002  0.62417262500000004        0.0000000000000000        8.6466978499308908E-006
 chl          44   1.6134842290514401E-010   2.5849967852265869E-010  0.62417262500000004     
 chl2c          45  0.37662252499999999        4.6544927192009838E-002  0.37662252499999999        0.0000000000000000        1.9919559063439932E-019
 chl          45   9.7370381827590754E-011   2.5853573635191033E-010  0.37662252499999999     
 chl2c          46  0.51876034999999998        3.7083195475449568E-002  0.51876034999999998        0.0000000000000000        9.3633199740459103E-016
 chl          46   1.3409938370530190E-010   2.5849967852265869E-010  0.51876034999999998     
 chl2c          47  0.61962282499999999        3.7519784612651236E-002  0.61962282499999999        0.0000000000000000        8.7155069617443370E-006
 chl          47   1.6017230106780160E-010   2.5849967852265869E-010  0.61962282499999999     
 chl2c          48  0.71424949999999998        3.7823212136301673E-002  0.71424949999999998        0.0000000000000000        8.0671317831221523E-006
 chl          48   1.8463326613496971E-010   2.5849967852265869E-010  0.71424949999999998     
 chl2c          49  0.53276120000000005        3.7152990741888416E-002  0.53276120000000005        0.0000000000000000        8.6958217722992860E-006
 chl          49   1.3771859892934589E-010   2.5849967852265869E-010  0.53276120000000005     
 chl2c          50  0.38132569999999999        2.1533072915600981E-002  0.38132569999999999        0.0000000000000000        5.4081536909373946E-016
 chl          50   9.8586320639407654E-011   2.5853573635191033E-010  0.38132569999999999     
 chl2c          51  0.22275920000000002        2.0700971146093840E-002  0.22275920000000002        0.0000000000000000        2.0642271166578288E-006
 chl          51   5.7591213801162468E-011   2.5853573635191033E-010  0.22275920000000002     
 chl2c          52  0.63698869999999996        3.7581825176985564E-002  0.63698869999999996        0.0000000000000000        8.1996719072317765E-006
 chl          52   1.6466137417256630E-010   2.5849967852265874E-010  0.63698869999999996     
 chl2c          53  0.75269794999999995        3.7925801262726190E-002  0.75269794999999995        0.0000000000000000        6.4625417650291034E-006
 chl          53   1.9457217809966426E-010   2.5849967852265874E-010  0.75269794999999995     
 chl2c          54  0.51861124999999997        3.7082433371327092E-002  0.51861124999999997        0.0000000000000000        8.6587719245883391E-006
 chl          54   1.3406084140323417E-010   2.5849967852265869E-010  0.51861124999999997     
 chl2c          55  0.57808280000000001        3.7357235588660491E-002  0.57808280000000001        0.0000000000000000        9.3785047802737773E-016
 chl          55   1.4943421795947840E-010   2.5849967852265869E-010  0.57808280000000001     
 chl2c          56  0.61626080000000005        3.7507394187257688E-002  0.61626080000000005        0.0000000000000000        3.0164418080111280E-006
 chl          56   1.5930321868611651E-010   2.5849967852265874E-010  0.61626080000000005     
 chl2c          57  0.68163462500000005        3.7727617852646313E-002  0.68163462500000005        0.0000000000000000        9.3832778201627879E-016
 chl          57   1.7620233143241301E-010   2.5849967852265869E-010  0.68163462500000005     
 chl2c          58  0.69416802499999997        3.7765358178394853E-002  0.69416802499999997        0.0000000000000000        9.3035873392344904E-016
 chl          58   1.7944221130320894E-010   2.5849967852265874E-010  0.69416802499999997     
 chl2c          59  0.53705127500000005        3.7173699120809672E-002  0.53705127500000005        0.0000000000000000        9.3909834645544336E-016
 chl          59   1.3882758193768397E-010   2.5849967852265869E-010  0.53705127500000005     
 chl2c          60  0.64452155000000000        3.7607757740906807E-002  0.64452155000000000        0.0000000000000000        9.2749795823344141E-016
 chl          60   1.6660861347592568E-010   2.5849967852265869E-010  0.64452155000000000     
 chl2c          61  0.70794139999999994        3.7805373434125003E-002  0.70794139999999994        0.0000000000000000        6.0477519291724046E-006
 chl          61   1.8300262431288092E-010   2.5849967852265869E-010  0.70794139999999994     
 chl2c          62  0.76481592499999995        3.7956103087269030E-002  0.76481592499999995        0.0000000000000000        7.9290828872754715E-006
 chl          62   1.9770467074150982E-010   2.5849967852265869E-010  0.76481592499999995     
 chl2c          63  0.72597904999999996        3.7855601011927406E-002  0.72597904999999996        0.0000000000000000        9.2795626423141684E-016
 chl          63   1.8766535103918519E-010   2.5849967852265874E-010  0.72597904999999996     
 chl2c          64  0.48435739999999999        2.5708982294816416E-002  0.48435739999999999        0.0000000000000000        3.3471361910745158E-006
 chl          64   1.2522369706649678E-010   2.5853573635191033E-010  0.48435739999999999     
 chl2c          65  0.76379975000000000        3.7953597170552002E-002  0.76379975000000000        0.0000000000000000        9.3035873392344904E-016
 chl          65   1.9744198983068711E-010   2.5849967852265874E-010  0.76379975000000000     
 chl2c          66  0.35213202499999996        3.1840477731474713E-002  0.35213202499999996        0.0000000000000000        7.9299286858846978E-010
 chl          66   9.1038712376464291E-011   2.5853573635191033E-010  0.35213202499999996     
 chl2c          67  0.75736760000000003        3.7937587124568600E-002  0.75736760000000003        0.0000000000000000        8.6990849028443419E-006
 chl          67   1.9577928112347755E-010   2.5849967852265869E-010  0.75736760000000003     
 chl2c          68  0.72590779999999999        3.7855407263856986E-002  0.72590779999999999        0.0000000000000000        9.3035873392344904E-016
 chl          68   1.8764693293709046E-010   2.5849967852265874E-010  0.72590779999999999     
 chl2c          69  0.45524217500000003        2.1732330561541505E-002  0.45524217500000003        0.0000000000000000        5.3964182563035084E-016
 chl          69   1.1769637093207022E-010   2.5853573635191033E-010  0.45524217500000003     
 chl2c          70  0.48694062500000002        3.2658010878182209E-002  0.48694062500000002        0.0000000000000000        2.0173850422643511E-008
 chl          70   1.2589155304403445E-010   2.5853573635191033E-010  0.48694062500000002     
 chl2c          71  0.23986107500000001        4.3481058864416305E-002  0.23986107500000001        0.0000000000000000        1.8318869366334632E-019
 chl          71   6.2012659647285791E-011   2.5853573635191033E-010  0.23986107500000001     
 chl2c          72  0.62790522500000001        3.7549776402781669E-002  0.62790522500000001        0.0000000000000000        8.4384767962951214E-006
 chl          72   1.6231329880519770E-010   2.5849967852265874E-010  0.62790522500000001     
 chl2c          73  0.35362212500000001        3.1852614277819484E-002  0.35362212500000001        0.0000000000000000        1.5427385645194577E-010
 chl          73   9.1423956477202281E-011   2.5853573635191033E-010  0.35362212500000001     
 chl2c          74  0.64719590000000005        3.7616827685877569E-002  0.64719590000000005        0.0000000000000000        9.3433138632331248E-016
 chl          74   1.6729993209118277E-010   2.5849967852265869E-010  0.64719590000000005     
 chl2c          75  0.71554212500000003        3.7826830779512356E-002  0.71554212500000003        0.0000000000000000        4.6790154921006795E-006
 chl          75   1.8496740928192012E-010   2.5849967852265874E-010  0.71554212500000003     
 chl2c          76  0.55513977500000000        3.7257729557919804E-002  0.55513977500000000        0.0000000000000000        9.3035873392344904E-016
 chl          76   1.4350345337264111E-010   2.5849967852265874E-010  0.55513977500000000     
 chl2c          77  0.52973029999999999        3.7138172437479272E-002  0.52973029999999999        0.0000000000000000        9.2657737919456240E-016
 chl          77   1.3693511225371154E-010   2.5849967852265869E-010  0.52973029999999999     
 chl2c          78  0.45117492500000000        4.7515248899399322E-002  0.45117492500000000        0.0000000000000000        2.2281292792923137E-018
 chl          78   1.1664484145839291E-010   2.5853573635191033E-010  0.45117492500000000     
 prod   7.4351345594086784E-010   0.0000000000000000        10.000000000000000     
 chl2c           1  0.60826437499999997        3.7477407714772232E-002  0.60826437499999997        0.0000000000000000        9.3573096263498489E-016
 chl           1   7.4690684785528051E-010   1.2279312722453629E-009  0.60826437499999997     
 chl2c           2  0.48302390000000001        3.2640259920490348E-002  0.48302390000000001        0.0000000000000000        1.1021598003700667E-019
 chl           2   5.9316913639699308E-010   1.2280326840907728E-009  0.48302390000000001     
 chl2c           3  0.75128689999999998        3.7922212503796585E-002  0.75128689999999998        0.0000000000000000        7.1681749526475669E-006
 chl           3   9.2252867893827473E-010   1.2279312722453629E-009  0.75128689999999998     
 chl2c           4  0.77318742499999993        3.7976509103863923E-002  0.77318742499999993        0.0000000000000000        9.3825302405480349E-016
 chl           4   9.4942101846436609E-010   1.2279312722453629E-009  0.77318742499999993     
 chl2c           5  0.48489679999999996        2.5710500362372445E-002  0.48489679999999996        0.0000000000000000        5.3956951551453097E-016
 chl           5   5.9546911881102664E-010   1.2280326840907728E-009  0.48489679999999996     
 chl2c           6  0.29222855000000003        3.1261039902252048E-002  0.29222855000000003        0.0000000000000000        1.5874073609370250E-018
 chl           6   3.5886621062445466E-010   1.2280326840907728E-009  0.29222855000000003     
 chl2c           7  0.22770740000000000        4.3064391842467263E-002  0.22770740000000000        0.0000000000000000        1.0754758626766243E-019
 chl           7   2.7963212960933125E-010   1.2280326840907728E-009  0.22770740000000000     
 chl2c           8  0.49578364999999996        4.7969800906495587E-002  0.49578364999999996        0.0000000000000000        1.1427558197803752E-019
 chl           8   6.0883852643782021E-010   1.2280326840907728E-009  0.49578364999999996     
 chl2c           9  0.28700202499999999        2.4803669054600401E-002  0.28700202499999999        0.0000000000000000        5.4184070846089975E-016
 chl           9   3.5244786710023707E-010   1.2280326840907728E-009  0.28700202499999999     
 chl2c          10  0.39094662499999999        2.5387016219684602E-002  0.39094662499999999        0.0000000000000000        5.4184857201832329E-016
 chl          10   4.8009523323497886E-010   1.2280326840907728E-009  0.39094662499999999     
 chl2c          11  0.49737575000000001        2.1820572217820047E-002  0.49737575000000001        0.0000000000000000        4.5880247938733498E-006
 chl          11   6.1079367727416120E-010   1.2280326840907728E-009  0.49737575000000001     
 chl2c          12  0.30768942500000002        4.5290941298723353E-002  0.30768942500000002        0.0000000000000000        5.8818482436563252E-010
 chl          12   3.7785267044909656E-010   1.2280326840907728E-009  0.30768942500000002     
 chl2c          13  0.75666275000000005        3.7935816987997487E-002  0.75666275000000005        0.0000000000000000        7.2643959573961166E-006
 chl          13   9.2912985322908360E-010   1.2279312721936999E-009  0.75666275000000005     
 chl2c          14  0.39804095000000000        4.6856526101924839E-002  0.39804095000000000        0.0000000000000000        1.5746975898001453E-009
 chl          14   4.8880729620654109E-010   1.2280326840907728E-009  0.39804095000000000     
 chl2c          15  0.25607262500000000        2.0954299823745293E-002  0.25607262500000000        0.0000000000000000        5.4323449746776491E-016
 chl          15   3.1446555300091994E-010   1.2280326840907728E-009  0.25607262500000000     
 chl2c          16  0.71433214999999994        3.7823443882273475E-002  0.71433214999999994        0.0000000000000000        5.5526960564305802E-006
 chl          16   8.7715078575526532E-010   1.2279312722453629E-009  0.71433214999999994     
 chl2c          17  0.62580860000000005        3.7542254757581245E-002  0.62580860000000005        0.0000000000000000        8.2298547845358424E-006
 chl          17   7.6844995038008955E-010   1.2279312722453629E-009  0.62580860000000005     
 chl2c          18  0.47925950000000000        2.5694475239060960E-002  0.47925950000000000        0.0000000000000000        1.3386048018498018E-006
 chl          18   5.8854633016100170E-010   1.2280326840907728E-009  0.47925950000000000     
 chl2c          19  0.63367130000000005        3.7570220750293731E-002  0.63367130000000005        0.0000000000000000        9.2840765621237573E-016
 chl          19   7.7810480559437314E-010   1.2279312722453629E-009  0.63367130000000005     
 chl2c          20  0.50678202500000002        3.7020645196759419E-002  0.50678202500000002        0.0000000000000000        7.8266927915784970E-006
 chl          20   6.2229349668314947E-010   1.2279312721936999E-009  0.50678202500000002     
 chl2c          21  0.71973185000000006        3.7838475073783531E-002  0.71973185000000006        0.0000000000000000        9.3329238875633395E-016
 chl          21   8.8378124620882529E-010   1.2279312721936999E-009  0.71973185000000006     
 chl2c          22  0.64616892500000001        3.7613353106285476E-002  0.64616892500000001        0.0000000000000000        9.3808852974705894E-016
 chl          22   7.9345103016066848E-010   1.2279312722453629E-009  0.64616892500000001     
 chl2c          23  0.41564179999999995        3.2286562315070731E-002  0.41564179999999995        0.0000000000000000        1.5732243542132012E-019
 chl          23   5.1042171527432015E-010   1.2280326840907728E-009  0.41564179999999995     
 chl2c          24  0.57597492500000003        3.7348402796863071E-002  0.57597492500000003        0.0000000000000000        5.8744513285285400E-006
 chl          24   7.0725762240692088E-010   1.2279312721936999E-009  0.57597492500000003     
 chl2c          25  0.31406487500000002        4.5426679235459781E-002  0.31406487500000002        0.0000000000000000        1.1982999388248419E-019
 chl          25   3.8568193142488310E-010   1.2280326840907728E-009  0.31406487500000002     
 chl2c          26  0.49427735000000000        4.7955660680174553E-002  0.49427735000000000        0.0000000000000000        9.5522349852940358E-010
 chl          26   6.0698874080577438E-010   1.2280326840907728E-009  0.49427735000000000     
 chl2c          27  0.30964730000000001        4.5333133499525620E-002  0.30964730000000001        0.0000000000000000        1.0530316929662777E-008
 chl          27   3.8025700494046076E-010   1.2280326840907728E-009  0.30964730000000001     
 chl2c          28  0.28776342500000002        3.1209236063453518E-002  0.28776342500000002        0.0000000000000000        1.0454265218834193E-008
 chl          28   3.5338289118590380E-010   1.2280326840907728E-009  0.28776342500000002     
 chl2c          29  0.68676297499999994        3.7743217595736761E-002  0.68676297499999994        0.0000000000000000        9.3416903318286633E-016
 chl          29   8.4329773358728006E-010   1.2279312721936999E-009  0.68676297499999994     
 chl2c          30  0.38930277499999999        2.5380056985171612E-002  0.38930277499999999        0.0000000000000000        4.7651299342793056E-006
 chl          30   4.7807653170723618E-010   1.2280326840907728E-009  0.38930277499999999     
 chl2c          31  0.63559385000000002        3.7576959810037038E-002  0.63559385000000002        0.0000000000000000        9.3635892084263666E-016
 chl          31   7.8046556482899167E-010   1.2279312721936999E-009  0.63559385000000002     
 chl2c          32  0.24722667500000001        2.0893126428578448E-002  0.24722667500000001        0.0000000000000000        5.4365799966130603E-016
 chl          32   3.0360243727908717E-010   1.2280326840907728E-009  0.24722667500000001     
 chl2c          33  0.60343137499999999        3.7458922634011876E-002  0.60343137499999999        0.0000000000000000        9.2987482713429669E-016
 chl          33   7.4097225598534364E-010   1.2279312721936999E-009  0.60343137499999999     
 chl2c          34  0.38241020000000003        2.5350269098008315E-002  0.38241020000000003        0.0000000000000000        5.3925601971332355E-016
 chl          34   4.6961222432968931E-010   1.2280326840907728E-009  0.38241020000000003     
 chl2c          35  0.49574644999999995        2.5740370148566064E-002  0.49574644999999995        0.0000000000000000        3.9412157929129738E-006
 chl          35   6.0879284362197198E-010   1.2280326840907728E-009  0.49574644999999995     
 chl2c          36  0.69587337500000002        3.7770393924465726E-002  0.69587337500000002        0.0000000000000000        5.9874362040650192E-006
 chl          36   8.5448467868542461E-010   1.2279312722453629E-009  0.69587337500000002     
 chl2c          37  0.33194060000000003        2.1353674699533250E-002  0.33194060000000003        0.0000000000000000        2.4831941632789820E-007
 chl          37   4.0763390597670162E-010   1.2280326840907728E-009  0.33194060000000003     
 chl2c          38  0.38455722500000000        2.1543295686358745E-002  0.38455722500000000        0.0000000000000000        3.4160698962270369E-006
 chl          38   4.7224884120324928E-010   1.2280326840907728E-009  0.38455722500000000     
 chl2c          39  0.47091117500000002        2.5670077108751441E-002  0.47091117500000002        0.0000000000000000        2.2084520389373766E-006
 chl          39   5.7829431420358964E-010   1.2280326840907728E-009  0.47091117500000002     
 chl2c          40  0.66875547499999999        3.7687445774703773E-002  0.66875547499999999        0.0000000000000000        5.5704080129551710E-006
 chl          40   8.2118576123780203E-010   1.2279312722453629E-009  0.66875547499999999     
 chl2c          41  0.44304987499999998        2.5582381488167241E-002  0.44304987499999998        0.0000000000000000        5.3742548809895720E-016
 chl          41   5.4407972718233134E-010   1.2280326840907728E-009  0.44304987499999998     
 chl2c          42  0.76234377499999995        3.7949995630725070E-002  0.76234377499999995        0.0000000000000000        4.6897909608369234E-006
 chl          42   9.3610576148469771E-010   1.2279312721936999E-009  0.76234377499999995     
 chl2c          43  0.29539925000000000        2.1185090152268007E-002  0.29539925000000000        0.0000000000000000        5.4366008083785235E-016
 chl          43   3.6275993385590123E-010   1.2280326840907728E-009  0.29539925000000000     
 chl2c          44  0.62417262500000004        3.7536352708156646E-002  0.62417262500000004        0.0000000000000000        7.9082536800112739E-006
 chl          44   7.6644108548473122E-010   1.2279312721936999E-009  0.62417262500000004     
 chl2c          45  0.37662252499999999        4.6544927192009838E-002  0.37662252499999999        0.0000000000000000        1.4485192039047588E-019
 chl          45   4.6250477026479417E-010   1.2280326840907728E-009  0.37662252499999999     
 chl2c          46  0.51876034999999998        3.7083195475449568E-002  0.51876034999999998        0.0000000000000000        9.3633199645589724E-016
 chl          46   6.3700205653914905E-010   1.2279312721936999E-009  0.51876034999999998     
 chl2c          47  0.61962282499999999        3.7519784612651236E-002  0.61962282499999999        0.0000000000000000        8.2275082947421722E-006
 chl          47   7.6085424378250429E-010   1.2279312721936999E-009  0.61962282499999999     
 chl2c          48  0.71424949999999998        3.7823212136301673E-002  0.71424949999999998        0.0000000000000000        6.3881310525134810E-006
 chl          48   8.7704929719871405E-010   1.2279312721936999E-009  0.71424949999999998     
 chl2c          49  0.53276120000000005        3.7152990741888416E-002  0.53276120000000005        0.0000000000000000        8.1975798164631065E-006
 chl          49   6.5419413809144227E-010   1.2279312721936999E-009  0.53276120000000005     
 chl2c          50  0.38132569999999999        2.1533072915600981E-002  0.38132569999999999        0.0000000000000000        5.4081536874211822E-016
 chl          50   4.6828042288379281E-010   1.2280326840907728E-009  0.38132569999999999     
 chl2c          51  0.22275920000000002        2.0700971146093840E-002  0.22275920000000002        0.0000000000000000        3.6263170409286381E-006
 chl          51   2.7355557828191329E-010   1.2280326840907728E-009  0.22275920000000002     
 chl2c          52  0.63698869999999996        3.7581825176985564E-002  0.63698869999999996        0.0000000000000000        6.7652297797368811E-006
 chl          52   7.8217834479691977E-010   1.2279312722453629E-009  0.63698869999999996     
 chl2c          53  0.75269794999999995        3.7925801262726190E-002  0.75269794999999995        0.0000000000000000        3.9139552522505998E-006
 chl          53   9.2426135135997652E-010   1.2279312722453629E-009  0.75269794999999995     
 chl2c          54  0.51861124999999997        3.7082433371327092E-002  0.51861124999999997        0.0000000000000000        8.1562107017387623E-006
 chl          54   6.3681897198646487E-010   1.2279312721936999E-009  0.51861124999999997     
 chl2c          55  0.57808280000000001        3.7357235588660491E-002  0.57808280000000001        0.0000000000000000        9.3785047712835930E-016
 chl          55   7.0984594803729617E-010   1.2279312721936999E-009  0.57808280000000001     
 chl2c          56  0.61626080000000005        3.7507394187257688E-002  0.61626080000000005        0.0000000000000000        5.2150415637129715E-006
 chl          56   7.5672590817894525E-010   1.2279312722453629E-009  0.61626080000000005     
 chl2c          57  0.68163462500000005        3.7727617852646313E-002  0.68163462500000005        0.0000000000000000        9.3832778113290919E-016
 chl          57   8.3700047224752565E-010   1.2279312721936999E-009  0.68163462500000005     
 chl2c          58  0.69416802499999997        3.7765358178394853E-002  0.69416802499999997        0.0000000000000000        9.3738678075954252E-016
 chl          58   8.5239062609030085E-010   1.2279312722453629E-009  0.69416802499999997     
 chl2c          59  0.53705127500000005        3.7173699120809672E-002  0.53705127500000005        0.0000000000000000        9.3909834559737174E-016
 chl          59   6.5946205534399864E-010   1.2279312721936999E-009  0.53705127500000005     
 chl2c          60  0.64452155000000000        3.7607757740906807E-002  0.64452155000000000        0.0000000000000000        9.2749795699904114E-016
 chl          60   7.9142816684775535E-010   1.2279312721936999E-009  0.64452155000000000     
 chl2c          61  0.70794139999999994        3.7805373434125003E-002  0.70794139999999994        0.0000000000000000        7.1718517166463002E-006
 chl          61   8.6930338394058892E-010   1.2279312721936999E-009  0.70794139999999994     
 chl2c          62  0.76481592499999995        3.7956103087269030E-002  0.76481592499999995        0.0000000000000000        6.2021735646004607E-006
 chl          62   9.3914139177925135E-010   1.2279312721936999E-009  0.76481592499999995     
 chl2c          63  0.72597904999999996        3.7855601011927406E-002  0.72597904999999996        0.0000000000000000        9.2795626301170082E-016
 chl          63   8.9145237848997994E-010   1.2279312722453629E-009  0.72597904999999996     
 chl2c          64  0.48435739999999999        2.5708982294816416E-002  0.48435739999999999        0.0000000000000000        4.2626644418690617E-006
 chl          64   5.9480671798122808E-010   1.2280326840907728E-009  0.48435739999999999     
 chl2c          65  0.76379975000000000        3.7953597170552002E-002  0.76379975000000000        0.0000000000000000        9.3121393660574736E-016
 chl          65   9.3789359875819021E-010   1.2279312722453629E-009  0.76379975000000000     
 chl2c          66  0.35213202499999996        3.1840477731474713E-002  0.35213202499999996        0.0000000000000000        8.6584747758531266E-010
 chl          66   4.3242963581506909E-010   1.2280326840907728E-009  0.35213202499999996     
 chl2c          67  0.75736760000000003        3.7937587124568600E-002  0.75736760000000003        0.0000000000000000        8.1960348321080002E-006
 chl          67   9.2999536058628929E-010   1.2279312721936999E-009  0.75736760000000003     
 chl2c          68  0.72590779999999999        3.7855407263856986E-002  0.72590779999999999        0.0000000000000000        9.3825302405480349E-016
 chl          68   8.9136488838683245E-010   1.2279312722453629E-009  0.72590779999999999     
 chl2c          69  0.45524217500000003        2.1732330561541505E-002  0.45524217500000003        0.0000000000000000        5.3964182523963720E-016
 chl          69   5.5905227007657131E-010   1.2280326840907728E-009  0.45524217500000003     
 chl2c          70  0.48694062500000002        3.2658010878182209E-002  0.48694062500000002        0.0000000000000000        1.2934353376004434E-008
 chl          70   5.9797900271158845E-010   1.2280326840907728E-009  0.48694062500000002     
 chl2c          71  0.23986107500000001        4.3481058864416305E-002  0.23986107500000001        0.0000000000000000        1.3321089921653176E-019
 chl          71   2.9455723974114817E-010   1.2280326840907728E-009  0.23986107500000001     
 chl2c          72  0.62790522500000001        3.7549776402781669E-002  0.62790522500000001        0.0000000000000000        7.3082824954221380E-006
 chl          72   7.7102446178376092E-010   1.2279312722453629E-009  0.62790522500000001     
 chl2c          73  0.35362212500000001        3.1852614277819484E-002  0.35362212500000001        0.0000000000000000        6.4042696880583779E-010
 chl          73   4.3425952731763281E-010   1.2280326840907728E-009  0.35362212500000001     
 chl2c          74  0.64719590000000005        3.7616827685877569E-002  0.64719590000000005        0.0000000000000000        9.3433138530942427E-016
 chl          74   7.9471208484554669E-010   1.2279312721936999E-009  0.64719590000000005     
 chl2c          75  0.71554212500000003        3.7826830779512356E-002  0.71554212500000003        0.0000000000000000        6.3542185188215929E-006
 chl          75   8.7863655189640059E-010   1.2279312722453629E-009  0.71554212500000003     
 chl2c          76  0.55513977500000000        3.7257729557919804E-002  0.55513977500000000        0.0000000000000000        9.3441820741825136E-016
 chl          76   6.8167349018975453E-010   1.2279312722453629E-009  0.55513977500000000     
 chl2c          77  0.52973029999999999        3.7138172437479272E-002  0.52973029999999999        0.0000000000000000        9.2657737793071218E-016
 chl          77   6.5047240119855035E-010   1.2279312721936999E-009  0.52973029999999999     
 chl2c          78  0.45117492500000000        4.7515248899399322E-002  0.45117492500000000        0.0000000000000000        1.5222920519439898E-018
 chl          78   5.5405755414220307E-010   1.2280326840907728E-009  0.45117492500000000     
 prod   5.4061804035930895E-010   0.0000000000000000        10.000000000000000     
 chl2c           1  0.60826437499999997        3.7477407714772232E-002  0.60826437499999997        0.0000000000000000        9.3573096118399773E-016
 chl           1   2.0492167046967087E-010   3.3689572970580577E-010  0.60826437499999997     
 chl2c           2  0.48302390000000001        3.2640259920490348E-002  0.48302390000000001        0.0000000000000000        4.8776767309519668E-020
 chl           2   1.6269867037306868E-010   3.3683358188501370E-010  0.48302390000000001     
 chl2c           3  0.75128689999999998        3.7922212503796585E-002  0.75128689999999998        0.0000000000000000        7.3531459311501195E-006
 chl           3   2.5310534839391271E-010   3.3689572970580577E-010  0.75128689999999998     
 chl2c           4  0.77318742499999993        3.7976509103863923E-002  0.77318742499999993        0.0000000000000000        9.3841762804543993E-016
 chl           4   2.6048354174472793E-010   3.3689572970580577E-010  0.77318742499999993     
 chl2c           5  0.48489679999999996        2.5710500362372445E-002  0.48489679999999996        0.0000000000000000        5.3956951492545600E-016
 chl           5   1.6332952598858110E-010   3.3683358188501370E-010  0.48489679999999996     
 chl2c           6  0.29222855000000003        3.1261039902252048E-002  0.29222855000000003        0.0000000000000000        6.4927422509548696E-019
 chl           6   9.8432389225563835E-011   3.3683358188501370E-010  0.29222855000000003     
 chl2c           7  0.22770740000000000        4.3064391842467263E-002  0.22770740000000000        0.0000000000000000        4.7595724573334217E-020
 chl           7   7.6699499163723567E-011   3.3683358188501370E-010  0.22770740000000000     
 chl2c           8  0.49578364999999996        4.7969800906495587E-002  0.49578364999999996        0.0000000000000000        5.0573577087889212E-020
 chl           8   1.6699658266952596E-010   3.3683358188501370E-010  0.49578364999999996     
 chl2c           9  0.28700202499999999        2.4803669054600401E-002  0.28700202499999999        0.0000000000000000        5.4184070798539865E-016
 chl           9   9.6671920089002253E-011   3.3683358188501370E-010  0.28700202499999999     
 chl2c          10  0.39094662499999999        2.5387016219684602E-002  0.39094662499999999        0.0000000000000000        5.4184857154321692E-016
 chl          10   1.3168395202460724E-010   3.3683358188501370E-010  0.39094662499999999     
 chl2c          11  0.49737575000000001        2.1820572217820047E-002  0.49737575000000001        0.0000000000000000        4.5799009241754692E-006
 chl          11   1.6753285541524510E-010   3.3683358188501370E-010  0.49737575000000001     
 chl2c          12  0.30768942500000002        4.5290941298723353E-002  0.30768942500000002        0.0000000000000000        1.9106125145005728E-010
 chl          12   1.0364013113089029E-010   3.3683358188501370E-010  0.30768942500000002     
 chl2c          13  0.75666275000000005        3.7935816987997487E-002  0.75666275000000005        0.0000000000000000        6.6762395681858222E-006
 chl          13   2.5491644930175305E-010   3.3689572970488243E-010  0.75666275000000005     
 chl2c          14  0.39804095000000000        4.6856526101924839E-002  0.39804095000000000        0.0000000000000000        1.2751379140687612E-009
 chl          14   1.3407355892541364E-010   3.3683358188501370E-010  0.39804095000000000     
 chl2c          15  0.25607262500000000        2.0954299823745293E-002  0.25607262500000000        0.0000000000000000        5.4323449706244364E-016
 chl          15   8.6253859501447910E-011   3.3683358188501370E-010  0.25607262500000000     
 chl2c          16  0.71433214999999994        3.7823443882273475E-002  0.71433214999999994        0.0000000000000000        4.6388116488869098E-006
 chl          16   2.4065545092656711E-010   3.3689572970580577E-010  0.71433214999999994     
 chl2c          17  0.62580860000000005        3.7542254757581245E-002  0.62580860000000005        0.0000000000000000        8.0532676862520477E-006
 chl          17   2.1083224495316874E-010   3.3689572970580577E-010  0.62580860000000005     
 chl2c          18  0.47925950000000000        2.5694475239060960E-002  0.47925950000000000        0.0000000000000000        2.0206745922840251E-006
 chl          18   1.6143069403742073E-010   3.3683358188501370E-010  0.47925950000000000     
 chl2c          19  0.63367130000000005        3.7570220750293731E-002  0.63367130000000005        0.0000000000000000        9.2840765440635738E-016
 chl          19   2.1348115500712657E-010   3.3689572970580577E-010  0.63367130000000005     
 chl2c          20  0.50678202500000002        3.7020645196759419E-002  0.50678202500000002        0.0000000000000000        7.4097151048398214E-006
 chl          20   1.7073270011369297E-010   3.3689572970488243E-010  0.50678202500000002     
 chl2c          21  0.71973185000000006        3.7838475073783531E-002  0.71973185000000006        0.0000000000000000        9.3329238718648379E-016
 chl          21   2.4247458679759499E-010   3.3689572970488243E-010  0.71973185000000006     
 chl2c          22  0.64616892500000001        3.7613353106285476E-002  0.64616892500000001        0.0000000000000000        9.3808852841159572E-016
 chl          22   2.1769155150109107E-010   3.3689572970580577E-010  0.64616892500000001     
 chl2c          23  0.41564179999999995        3.2286562315070731E-002  0.41564179999999995        0.0000000000000000        6.9627340093653634E-020
 chl          23   1.4000211627513448E-010   3.3683358188501370E-010  0.41564179999999995     
 chl2c          24  0.57597492500000003        3.7348402796863071E-002  0.57597492500000003        0.0000000000000000        6.3264307192705019E-006
 chl          24   1.9404349264958993E-010   3.3689572970488243E-010  0.57597492500000003     
 chl2c          25  0.31406487500000002        4.5426679235459781E-002  0.31406487500000002        0.0000000000000000        5.3032024697936352E-020
 chl          25   1.0578759679051910E-010   3.3683358188501370E-010  0.31406487500000002     
 chl2c          26  0.49427735000000000        4.7955660680174553E-002  0.49427735000000000        0.0000000000000000        4.1302699677487216E-010
 chl          26   1.6648921024513258E-010   3.3683358188501370E-010  0.49427735000000000     
 chl2c          27  0.30964730000000001        4.5333133499525620E-002  0.30964730000000001        0.0000000000000000        4.2087788399112533E-009
 chl          27   1.0429960918002341E-010   3.3683358188501370E-010  0.30964730000000001     
 chl2c          28  0.28776342500000002        3.1209236063453518E-002  0.28776342500000002        0.0000000000000000        4.1603562228121589E-009
 chl          28   9.6928385178249499E-011   3.3683358188501370E-010  0.28776342500000002     
 chl2c          29  0.68676297499999994        3.7743217595736761E-002  0.68676297499999994        0.0000000000000000        9.3416903165567244E-016
 chl          29   2.3136751359692091E-010   3.3689572970488243E-010  0.68676297499999994     
 chl2c          30  0.38930277499999999        2.5380056985171612E-002  0.38930277499999999        0.0000000000000000        4.6645664590220277E-006
 chl          30   1.3113024814102556E-010   3.3683358188501370E-010  0.38930277499999999     
 chl2c          31  0.63559385000000002        3.7576959810037038E-002  0.63559385000000002        0.0000000000000000        9.3635891942236182E-016
 chl          31   2.1412885389168560E-010   3.3689572970488243E-010  0.63559385000000002     
 chl2c          32  0.24722667500000001        2.0893126428578448E-002  0.24722667500000001        0.0000000000000000        5.4365799927738143E-016
 chl          32   8.3274246477772176E-011   3.3683358188501370E-010  0.24722667500000001     
 chl2c          33  0.60343137499999999        3.7458922634011876E-002  0.60343137499999999        0.0000000000000000        9.2987482539894351E-016
 chl          33   2.0329345340744554E-010   3.3689572970488243E-010  0.60343137499999999     
 chl2c          34  0.38241020000000003        2.5350269098008315E-002  0.38241020000000003        0.0000000000000000        5.3925601910864815E-016
 chl          34   1.2880859741536448E-010   3.3683358188501370E-010  0.38241020000000003     
 chl2c          35  0.49574644999999995        2.5740370148566064E-002  0.49574644999999995        0.0000000000000000        4.1661985582786824E-006
 chl          35   1.6698405246027983E-010   3.3683358188501370E-010  0.49574644999999995     
 chl2c          36  0.69587337500000002        3.7770393924465726E-002  0.69587337500000002        0.0000000000000000        6.4219309980442518E-006
 chl          36   2.3443676845346684E-010   3.3689572970580577E-010  0.69587337500000002     
 chl2c          37  0.33194060000000003        2.1353674699533250E-002  0.33194060000000003        0.0000000000000000        9.1430446719713938E-007
 chl          37   1.1180874127106059E-010   3.3683358188501370E-010  0.33194060000000003     
 chl2c          38  0.38455722500000000        2.1543295686358745E-002  0.38455722500000000        0.0000000000000000        3.7942040935974479E-006
 chl          38   1.2953178753651115E-010   3.3683358188501370E-010  0.38455722500000000     
 chl2c          39  0.47091117500000002        2.5670077108751441E-002  0.47091117500000002        0.0000000000000000        2.8085405445702929E-006
 chl          39   1.5861869782493053E-010   3.3683358188501370E-010  0.47091117500000002     
 chl2c          40  0.66875547499999999        3.7687445774703773E-002  0.66875547499999999        0.0000000000000000        4.6586295418558024E-006
 chl          40   2.2530086374487774E-010   3.3689572970580577E-010  0.66875547499999999     
 chl2c          41  0.44304987499999998        2.5582381488167241E-002  0.44304987499999998        0.0000000000000000        5.3742548740356024E-016
 chl          41   1.4923407634995759E-010   3.3683358188501370E-010  0.44304987499999998     
 chl2c          42  0.76234377499999995        3.7949995630725070E-002  0.76234377499999995        0.0000000000000000        3.7002692109858801E-006
 chl          42   2.5683036236459968E-010   3.3689572970488243E-010  0.76234377499999995     
 chl2c          43  0.29539925000000000        2.1185090152268007E-002  0.29539925000000000        0.0000000000000000        5.4366008045403296E-016
 chl          43   9.9500387463646640E-011   3.3683358188501370E-010  0.29539925000000000     
 chl2c          44  0.62417262500000004        3.7536352708156646E-002  0.62417262500000004        0.0000000000000000        7.5523782546464970E-006
 chl          44   2.1028109196118696E-010   3.3689572970488243E-010  0.62417262500000004     
 chl2c          45  0.37662252499999999        4.6544927192009838E-002  0.37662252499999999        0.0000000000000000        6.4107364324421175E-020
 chl          45   1.2685911411432810E-010   3.3683358188501370E-010  0.37662252499999999     
 chl2c          46  0.51876034999999998        3.7083195475449568E-002  0.51876034999999998        0.0000000000000000        9.3633199503430481E-016
 chl          46   1.7476814665521019E-010   3.3689572970488243E-010  0.51876034999999998     
 chl2c          47  0.61962282499999999        3.7519784612651236E-002  0.61962282499999999        0.0000000000000000        8.0414679213476986E-006
 chl          47   2.0874828377017567E-010   3.3689572970488243E-010  0.61962282499999999     
 chl2c          48  0.71424949999999998        3.7823212136301673E-002  0.71424949999999998        0.0000000000000000        5.6003361815896123E-006
 chl          48   2.4062760649384740E-010   3.3689572970488243E-010  0.71424949999999998     
 chl2c          49  0.53276120000000005        3.7152990741888416E-002  0.53276120000000005        0.0000000000000000        8.0118113631029483E-006
 chl          49   1.7948497323244882E-010   3.3689572970488243E-010  0.53276120000000005     
 chl2c          50  0.38132569999999999        2.1533072915600981E-002  0.38132569999999999        0.0000000000000000        5.4081536821522313E-016
 chl          50   1.2844330139581017E-010   3.3683358188501370E-010  0.38132569999999999     
 chl2c          51  0.22275920000000002        2.0700971146093840E-002  0.22275920000000002        0.0000000000000000        3.9520841587896729E-006
 chl          51   7.5032779233840153E-011   3.3683358188501370E-010  0.22275920000000002     
 chl2c          52  0.63698869999999996        3.7581825176985564E-002  0.63698869999999996        0.0000000000000000        6.0450002574873414E-006
 chl          52   2.1459877290085258E-010   3.3689572970580577E-010  0.63698869999999996     
 chl2c          53  0.75269794999999995        3.7925801262726190E-002  0.75269794999999995        0.0000000000000000        2.8829820204487320E-006
 chl          53   2.5358072511331407E-010   3.3689572970580577E-010  0.75269794999999995     
 chl2c          54  0.51861124999999997        3.7082433371327092E-002  0.51861124999999997        0.0000000000000000        7.9712515822752511E-006
 chl          54   1.7471791550191121E-010   3.3689572970488243E-010  0.51861124999999997     
 chl2c          55  0.57808280000000001        3.7357235588660491E-002  0.57808280000000001        0.0000000000000000        9.3785047578120398E-016
 chl          55   1.9475362673584161E-010   3.3689572970488243E-010  0.57808280000000001     
 chl2c          56  0.61626080000000005        3.7507394187257688E-002  0.61626080000000005        0.0000000000000000        5.7959997133468492E-006
 chl          56   2.0761563190508365E-010   3.3689572970580577E-010  0.61626080000000005     
 chl2c          57  0.68163462500000005        3.7727617852646313E-002  0.68163462500000005        0.0000000000000000        9.3832777980920296E-016
 chl          57   2.2963979438148892E-010   3.3689572970488243E-010  0.68163462500000005     
 chl2c          58  0.69416802499999997        3.7765358178394853E-002  0.69416802499999997        0.0000000000000000        9.3738677938963014E-016
 chl          58   2.3386224332081300E-010   3.3689572970580577E-010  0.69416802499999997     
 chl2c          59  0.53705127500000005        3.7173699120809672E-002  0.53705127500000005        0.0000000000000000        9.3909834431157402E-016
 chl          59   1.8093028118006250E-010   3.3689572970488243E-010  0.53705127500000005     
 chl2c          60  0.64452155000000000        3.7607757740906807E-002  0.64452155000000000        0.0000000000000000        9.2749795514932462E-016
 chl          60   2.1713655789777185E-010   3.3689572970488243E-010  0.64452155000000000     
 chl2c          61  0.70794139999999994        3.7805373434125003E-002  0.70794139999999994        0.0000000000000000        7.3485714817763595E-006
 chl          61   2.3850243454129603E-010   3.3689572970488243E-010  0.70794139999999994     
 chl2c          62  0.76481592499999995        3.7956103087269030E-002  0.76481592499999995        0.0000000000000000        5.3986229513948353E-006
 chl          62   2.5766321914278962E-010   3.3689572970488243E-010  0.76481592499999995     
 chl2c          63  0.72597904999999996        3.7855601011927406E-002  0.72597904999999996        0.0000000000000000        9.2795626118398839E-016
 chl          63   2.4457924180087763E-010   3.3689572970580577E-010  0.72597904999999996     
 chl2c          64  0.48435739999999999        2.5708982294816416E-002  0.48435739999999999        0.0000000000000000        4.3704506772365869E-006
 chl          64   1.6314783795451234E-010   3.3683358188501370E-010  0.48435739999999999     
 chl2c          65  0.76379975000000000        3.7953597170552002E-002  0.76379975000000000        0.0000000000000000        9.3121393493509359E-016
 chl          65   2.5732087412536204E-010   3.3689572970580577E-010  0.76379975000000000     
 chl2c          66  0.35213202499999996        3.1840477731474713E-002  0.35213202499999996        0.0000000000000000        4.0562400867863777E-010
 chl          66   1.1860989127717317E-010   3.3683358188501370E-010  0.35213202499999996     
 chl2c          67  0.75736760000000003        3.7937587124568600E-002  0.75736760000000003        0.0000000000000000        8.0102017504942469E-006
 chl          67   2.5515391025683554E-010   3.3689572970488243E-010  0.75736760000000003     
 chl2c          68  0.72590779999999999        3.7855407263856986E-002  0.72590779999999999        0.0000000000000000        9.3841762804543993E-016
 chl          68   2.4455523798013612E-010   3.3689572970580577E-010  0.72590779999999999     
 chl2c          69  0.45524217500000003        2.1732330561541505E-002  0.45524217500000003        0.0000000000000000        5.3964182465416308E-016
 chl          69   1.5334085243037425E-010   3.3683358188501370E-010  0.45524217500000003     
 chl2c          70  0.48694062500000002        3.2658010878182209E-002  0.48694062500000002        0.0000000000000000        5.1473112018687198E-009
 chl          70   1.6401795488407726E-010   3.3683358188501370E-010  0.48694062500000002     
 chl2c          71  0.23986107500000001        4.3481058864416305E-002  0.23986107500000001        0.0000000000000000        5.8954683201418560E-020
 chl          71   8.0793265047039917E-011   3.3683358188501370E-010  0.23986107500000001     
 chl2c          72  0.62790522500000001        3.7549776402781669E-002  0.62790522500000001        0.0000000000000000        6.7166903584748081E-006
 chl          72   2.1153858896246317E-010   3.3689572970580577E-010  0.62790522500000001     
 chl2c          73  0.35362212500000001        3.1852614277819484E-002  0.35362212500000001        0.0000000000000000        3.5495133494432521E-010
 chl          73   1.1911180699754005E-010   3.3683358188501370E-010  0.35362212500000001     
 chl2c          74  0.64719590000000005        3.7616827685877569E-002  0.64719590000000005        0.0000000000000000        9.3433138379013950E-016
 chl          74   2.1803753499250813E-010   3.3689572970488243E-010  0.64719590000000005     
 chl2c          75  0.71554212500000003        3.7826830779512356E-002  0.71554212500000003        0.0000000000000000        6.7164065313235436E-006
 chl          75   2.4106308633711790E-010   3.3689572970580577E-010  0.71554212500000003     
 chl2c          76  0.55513977500000000        3.7257729557919804E-002  0.55513977500000000        0.0000000000000000        9.3441820590319725E-016
 chl          76   1.8702421958734182E-010   3.3689572970580577E-010  0.55513977500000000     
 chl2c          77  0.52973029999999999        3.7138172437479272E-002  0.52973029999999999        0.0000000000000000        9.2657737603686560E-016
 chl          77   1.7846387596528627E-010   3.3689572970488243E-010  0.52973029999999999     
 chl2c          78  0.45117492500000000        4.7515248899399322E-002  0.45117492500000000        0.0000000000000000        6.2260476445064455E-019
 chl          78   1.5197086604445242E-010   3.3683358188501370E-010  0.45117492500000000     
 prod   2.3922720216791941E-010   0.0000000000000000        10.000000000000000     
 chl2c           1  0.60826437499999997        3.7477407714772232E-002  0.60826437499999997        0.0000000000000000        9.3573096118399596E-016
 chl           1   2.0488325559420689E-010   3.3683257480631986E-010  0.60826437499999997     
 chl2c           2  0.48302390000000001        3.2640259920490348E-002  0.48302390000000001        0.0000000000000000        4.8776691459257200E-020
 chl           2   1.6269818390721365E-010   3.3683257475916544E-010  0.48302390000000001     
 chl2c           3  0.75128689999999998        3.7922212503796585E-002  0.75128689999999998        0.0000000000000000        7.3531476184041775E-006
 chl           3   2.5305790094525812E-010   3.3683257480631986E-010  0.75128689999999998     
 chl2c           4  0.77318742499999993        3.7976509103863923E-002  0.77318742499999993        0.0000000000000000        9.3841762601398840E-016
 chl           4   2.6043471117061829E-010   3.3683257480631986E-010  0.77318742499999993     
 chl2c           5  0.48489679999999996        2.5710500362372445E-002  0.48489679999999996        0.0000000000000000        5.3956951492545521E-016
 chl           5   1.6332903763648009E-010   3.3683257475916544E-010  0.48489679999999996     
 chl2c           6  0.29222855000000003        3.1261039902252048E-002  0.29222855000000003        0.0000000000000000        6.4927309490542553E-019
 chl           6   9.8432094914637524E-011   3.3683257475916544E-010  0.29222855000000003     
 chl2c           7  0.22770740000000000        4.3064391842467263E-002  0.22770740000000000        0.0000000000000000        4.7595650559492445E-020
 chl           7   7.6699269833715186E-011   3.3683257475916544E-010  0.22770740000000000     
 chl2c           8  0.49578364999999996        4.7969800906495587E-002  0.49578364999999996        0.0000000000000000        5.0573498443755929E-020
 chl           8   1.6699608335299691E-010   3.3683257475916544E-010  0.49578364999999996     
 chl2c           9  0.28700202499999999        2.4803669054600401E-002  0.28700202499999999        0.0000000000000000        5.4184070798539796E-016
 chl           9   9.6671631041844371E-011   3.3683257475916544E-010  0.28700202499999999     
 chl2c          10  0.39094662499999999        2.5387016219684602E-002  0.39094662499999999        0.0000000000000000        5.4184857154321642E-016
 chl          10   1.3168355829215590E-010   3.3683257475916544E-010  0.39094662499999999     
 chl2c          11  0.49737575000000001        2.1820572217820047E-002  0.49737575000000001        0.0000000000000000        4.5799004551110626E-006
 chl          11   1.6753235449527097E-010   3.3683257475916544E-010  0.49737575000000001     
 chl2c          12  0.30768942500000002        4.5290941298723353E-002  0.30768942500000002        0.0000000000000000        1.9106003563709871E-010
 chl          12   1.0363982124891714E-010   3.3683257475916544E-010  0.30768942500000002     
 chl2c          13  0.75666275000000005        3.7935816987997487E-002  0.75666275000000005        0.0000000000000000        6.6762314168892052E-006
 chl          13   2.5486866234183206E-010   3.3683257480539652E-010  0.75666275000000005     
 chl2c          14  0.39804095000000000        4.6856526101924839E-002  0.39804095000000000        0.0000000000000000        1.2751437626851561E-009
 chl          14   1.3407315804808422E-010   3.3683257475916544E-010  0.39804095000000000     
 chl2c          15  0.25607262500000000        2.0954299823745293E-002  0.25607262500000000        0.0000000000000000        5.4323449706244305E-016
 chl          15   8.6253601604088234E-011   3.3683257475916544E-010  0.25607262500000000     
 chl2c          16  0.71433214999999994        3.7823443882273475E-002  0.71433214999999994        0.0000000000000000        4.6387994395215391E-006
 chl          16   2.4061033735143429E-010   3.3683257480631986E-010  0.71433214999999994     
 chl2c          17  0.62580860000000005        3.7542254757581245E-002  0.62580860000000005        0.0000000000000000        8.0532653428446751E-006
 chl          17   2.1079272207393833E-010   3.3683257480631986E-010  0.62580860000000005     
 chl2c          18  0.47925950000000000        2.5694475239060960E-002  0.47925950000000000        0.0000000000000000        2.0206829851240319E-006
 chl          18   1.6143021136279025E-010   3.3683257475916544E-010  0.47925950000000000     
 chl2c          19  0.63367130000000005        3.7570220750293731E-002  0.63367130000000005        0.0000000000000000        9.2840765440635521E-016
 chl          19   2.1344113555986797E-010   3.3683257480631986E-010  0.63367130000000005     
 chl2c          20  0.50678202500000002        3.7020645196759419E-002  0.50678202500000002        0.0000000000000000        7.4097092695891402E-006
 chl          20   1.7070069434584283E-010   3.3683257480539652E-010  0.50678202500000002     
 chl2c          21  0.71973185000000006        3.7838475073783531E-002  0.71973185000000006        0.0000000000000000        9.3329238718648201E-016
 chl          21   2.4242913220495142E-010   3.3683257480539652E-010  0.71973185000000006     
 chl2c          22  0.64616892500000001        3.7613353106285476E-002  0.64616892500000001        0.0000000000000000        9.3808852841159415E-016
 chl          22   2.1765074276758178E-010   3.3683257480631986E-010  0.64616892500000001     
 chl2c          23  0.41564179999999995        3.2286562315070731E-002  0.41564179999999995        0.0000000000000000        6.9627231823825607E-020
 chl          23   1.4000169767153407E-010   3.3683257475916544E-010  0.41564179999999995     
 chl2c          24  0.57597492500000003        3.7348402796863071E-002  0.57597492500000003        0.0000000000000000        6.3264356865374426E-006
 chl          24   1.9400711701109515E-010   3.3683257480539652E-010  0.57597492500000003     
 chl2c          25  0.31406487500000002        4.5426679235459781E-002  0.31406487500000002        0.0000000000000000        5.3031942231176955E-020
 chl          25   1.0578728048766545E-010   3.3683257475916544E-010  0.31406487500000002     
 chl2c          26  0.49427735000000000        4.7955660680174553E-002  0.49427735000000000        0.0000000000000000        4.1302622818357427E-010
 chl          26   1.6648871244563719E-010   3.3683257475916544E-010  0.49427735000000000     
 chl2c          27  0.30964730000000001        4.5333133499525620E-002  0.30964730000000001        0.0000000000000000        4.2087702672169226E-009
 chl          27   1.0429929732622373E-010   3.3683257475916544E-010  0.30964730000000001     
 chl2c          28  0.28776342500000002        3.1209236063453518E-002  0.28776342500000002        0.0000000000000000        4.1603473948545697E-009
 chl          28   9.6928095364266005E-011   3.3683257475916544E-010  0.28776342500000002     
 chl2c          29  0.68676297499999994        3.7743217595736761E-002  0.68676297499999994        0.0000000000000000        9.3416903165567066E-016
 chl          29   2.3132414115026415E-010   3.3683257480539652E-010  0.68676297499999994     
 chl2c          30  0.38930277499999999        2.5380056985171612E-002  0.38930277499999999        0.0000000000000000        4.6645651169837655E-006
 chl          30   1.3112985606413807E-010   3.3683257475916544E-010  0.38930277499999999     
 chl2c          31  0.63559385000000002        3.7576959810037038E-002  0.63559385000000002        0.0000000000000000        9.3635891942236004E-016
 chl          31   2.1408871302597498E-010   3.3683257480539652E-010  0.63559385000000002     
 chl2c          32  0.24722667500000001        2.0893126428578448E-002  0.24722667500000001        0.0000000000000000        5.4365799927738084E-016
 chl          32   8.3273997489397403E-011   3.3683257475916544E-010  0.24722667500000001     
 chl2c          33  0.60343137499999999        3.7458922634011876E-002  0.60343137499999999        0.0000000000000000        9.2987482539894134E-016
 chl          33   2.0325534375961077E-010   3.3683257480539652E-010  0.60343137499999999     
 chl2c          34  0.38241020000000003        2.5350269098008315E-002  0.38241020000000003        0.0000000000000000        5.3925601910864736E-016
 chl          34   1.2880821228016741E-010   3.3683257475916544E-010  0.38241020000000003     
 chl2c          35  0.49574644999999995        2.5740370148566064E-002  0.49574644999999995        0.0000000000000000        4.1662006881344300E-006
 chl          35   1.6698355318121586E-010   3.3683257475916544E-010  0.49574644999999995     
 chl2c          36  0.69587337500000002        3.7770393924465726E-002  0.69587337500000002        0.0000000000000000        6.4219357421460850E-006
 chl          36   2.3439282064041378E-010   3.3683257480631986E-010  0.69587337500000002     
 chl2c          37  0.33194060000000003        2.1353674699533250E-002  0.33194060000000003        0.0000000000000000        9.1431323668134253E-007
 chl          37   1.1180840696510224E-010   3.3683257475916544E-010  0.33194060000000003     
 chl2c          38  0.38455722500000000        2.1543295686358745E-002  0.38455722500000000        0.0000000000000000        3.7942080847463026E-006
 chl          38   1.2953140023898972E-010   3.3683257475916544E-010  0.38455722500000000     
 chl2c          39  0.47091117500000002        2.5670077108751441E-002  0.47091117500000002        0.0000000000000000        2.8085475485734828E-006
 chl          39   1.5861822355811394E-010   3.3683257475916544E-010  0.47091117500000002     
 chl2c          40  0.66875547499999999        3.7687445774703773E-002  0.66875547499999999        0.0000000000000000        4.6586173559647723E-006
 chl          40   2.2525862856007346E-010   3.3683257480631986E-010  0.66875547499999999     
 chl2c          41  0.44304987499999998        2.5582381488167241E-002  0.44304987499999998        0.0000000000000000        5.3742548740355935E-016
 chl          41   1.4923363014297641E-010   3.3683257475916544E-010  0.44304987499999998     
 chl2c          42  0.76234377499999995        3.7949995630725070E-002  0.76234377499999995        0.0000000000000000        3.7002562448242449E-006
 chl          42   2.5678221662011585E-010   3.3683257480539652E-010  0.76234377499999995     
 chl2c          43  0.29539925000000000        2.1185090152268007E-002  0.29539925000000000        0.0000000000000000        5.4366008045403237E-016
 chl          43   9.9500089959426409E-011   3.3683257475916544E-010  0.29539925000000000     
 chl2c          44  0.62417262500000004        3.7536352708156646E-002  0.62417262500000004        0.0000000000000000        7.5523732770805361E-006
 chl          44   2.1024167240179321E-010   3.3683257480539652E-010  0.62417262500000004     
 chl2c          45  0.37662252499999999        4.6544927192009838E-002  0.37662252499999999        0.0000000000000000        6.4107264637102578E-020
 chl          45   1.2685873480804815E-010   3.3683257475916544E-010  0.37662252499999999     
 chl2c          46  0.51876034999999998        3.7083195475449568E-002  0.51876034999999998        0.0000000000000000        9.3633199503430303E-016
 chl          46   1.7473538439744868E-010   3.3683257480539652E-010  0.51876034999999998     
 chl2c          47  0.61962282499999999        3.7519784612651236E-002  0.61962282499999999        0.0000000000000000        8.0414655421077017E-006
 chl          47   2.0870915155294362E-010   3.3683257480539652E-010  0.61962282499999999     
 chl2c          48  0.71424949999999998        3.7823212136301673E-002  0.71424949999999998        0.0000000000000000        5.6003254829012645E-006
 chl          48   2.4058249813846703E-010   3.3683257480539652E-010  0.71424949999999998     
 chl2c          49  0.53276120000000005        3.7152990741888416E-002  0.53276120000000005        0.0000000000000000        8.0118089918382494E-006
 chl          49   1.7945132675241283E-010   3.3683257480539652E-010  0.53276120000000005     
 chl2c          50  0.38132569999999999        2.1533072915600981E-002  0.38132569999999999        0.0000000000000000        5.4081536821522254E-016
 chl          50   1.2844291735284110E-010   3.3683257475916544E-010  0.38132569999999999     
 chl2c          51  0.22275920000000002        2.0700971146093840E-002  0.22275920000000002        0.0000000000000000        3.9520874974293929E-006
 chl          51   7.5032554887291892E-011   3.3683257475916544E-010  0.22275920000000002     
 chl2c          52  0.63698869999999996        3.7581825176985564E-002  0.63698869999999996        0.0000000000000000        6.0449903687623503E-006
 chl          52   2.1455854394353042E-010   3.3683257480631986E-010  0.63698869999999996     
 chl2c          53  0.75269794999999995        3.7925801262726190E-002  0.75269794999999995        0.0000000000000000        2.8829687297063151E-006
 chl          53   2.5353318854993858E-010   3.3683257480631986E-010  0.75269794999999995     
 chl2c          54  0.51861124999999997        3.7082433371327092E-002  0.51861124999999997        0.0000000000000000        7.9712492229856787E-006
 chl          54   1.7468516266054519E-010   3.3683257480539652E-010  0.51861124999999997     
 chl2c          55  0.57808280000000001        3.7357235588660491E-002  0.57808280000000001        0.0000000000000000        9.3785047578120240E-016
 chl          55   1.9471711797471307E-010   3.3683257480539652E-010  0.57808280000000001     
 chl2c          56  0.61626080000000005        3.7507394187257688E-002  0.61626080000000005        0.0000000000000000        5.7960063141927812E-006
 chl          56   2.0757671201620254E-010   3.3683257480631986E-010  0.61626080000000005     
 chl2c          57  0.68163462500000005        3.7727617852646313E-002  0.68163462500000005        0.0000000000000000        9.3832777980920138E-016
 chl          57   2.2959674581526093E-010   3.3683257480539652E-010  0.68163462500000005     
 chl2c          58  0.69416802499999997        3.7765358178394853E-002  0.69416802499999997        0.0000000000000000        9.3738677938962836E-016
 chl          58   2.3381840320896781E-010   3.3683257480631986E-010  0.69416802499999997     
 chl2c          59  0.53705127500000005        3.7173699120809672E-002  0.53705127500000005        0.0000000000000000        9.3909834431157245E-016
 chl          59   1.8089636376077108E-010   3.3683257480539652E-010  0.53705127500000005     
 chl2c          60  0.64452155000000000        3.7607757740906807E-002  0.64452155000000000        0.0000000000000000        9.2749795514932245E-016
 chl          60   2.1709585320406510E-010   3.3683257480539652E-010  0.64452155000000000     
 chl2c          61  0.70794139999999994        3.7805373434125003E-002  0.70794139999999994        0.0000000000000000        7.3485730730335064E-006
 chl          61   2.3845772457333711E-010   3.3683257480539652E-010  0.70794139999999994     
 chl2c          62  0.76481592499999995        3.7956103087269030E-002  0.76481592499999995        0.0000000000000000        5.3986120703540210E-006
 chl          62   2.5761491726992099E-010   3.3683257480539652E-010  0.76481592499999995     
 chl2c          63  0.72597904999999996        3.7855601011927406E-002  0.72597904999999996        0.0000000000000000        9.2795626118398622E-016
 chl          63   2.4453339266694598E-010   3.3683257480631986E-010  0.72597904999999996     
 chl2c          64  0.48435739999999999        2.5708982294816416E-002  0.48435739999999999        0.0000000000000000        4.3704514632737294E-006
 chl          64   1.6314735014565499E-010   3.3683257475916544E-010  0.48435739999999999     
 chl2c          65  0.76379975000000000        3.7953597170552002E-002  0.76379975000000000        0.0000000000000000        9.3121393493509142E-016
 chl          65   2.5727263642892342E-010   3.3683257480631986E-010  0.76379975000000000     
 chl2c          66  0.35213202499999996        3.1840477731474713E-002  0.35213202499999996        0.0000000000000000        4.0562359140008679E-010
 chl          66   1.1860953663590880E-010   3.3683257475916544E-010  0.35213202499999996     
 chl2c          67  0.75736760000000003        3.7937587124568600E-002  0.75736760000000003        0.0000000000000000        8.0101993796888855E-006
 chl          67   2.5510607878218362E-010   3.3683257480539652E-010  0.75736760000000003     
 chl2c          68  0.72590779999999999        3.7855407263856986E-002  0.72590779999999999        0.0000000000000000        9.3841762601398840E-016
 chl          68   2.4450939334599106E-010   3.3683257480631986E-010  0.72590779999999999     
 chl2c          69  0.45524217500000003        2.1732330561541505E-002  0.45524217500000003        0.0000000000000000        5.3964182465416239E-016
 chl          69   1.5334039394421258E-010   3.3683257475916544E-010  0.45524217500000003     
 chl2c          70  0.48694062500000002        3.2658010878182209E-002  0.48694062500000002        0.0000000000000000        5.1473002577303265E-009
 chl          70   1.6401746447358724E-010   3.3683257475916544E-010  0.48694062500000002     
 chl2c          71  0.23986107500000001        4.3481058864416305E-002  0.23986107500000001        0.0000000000000000        5.8954591525691450E-020
 chl          71   8.0793023476751291E-011   3.3683257475916544E-010  0.23986107500000001     
 chl2c          72  0.62790522500000001        3.7549776402781669E-002  0.62790522500000001        0.0000000000000000        6.7166821278044031E-006
 chl          72   2.1149893367109160E-010   3.3683257480631986E-010  0.62790522500000001     
 chl2c          73  0.35362212500000001        3.1852614277819484E-002  0.35362212500000001        0.0000000000000000        3.5495161173723194E-010
 chl          73   1.1911145085555744E-010   3.3683257475916544E-010  0.35362212500000001     
 chl2c          74  0.64719590000000005        3.7616827685877569E-002  0.64719590000000005        0.0000000000000000        9.3433138379013772E-016
 chl          74   2.1799666140049594E-010   3.3683257480539652E-010  0.64719590000000005     
 chl2c          75  0.71554212500000003        3.7826830779512356E-002  0.71554212500000003        0.0000000000000000        6.7164103707567459E-006
 chl          75   2.4101789634613557E-010   3.3683257480631986E-010  0.71554212500000003     
 chl2c          76  0.55513977500000000        3.7257729557919804E-002  0.55513977500000000        0.0000000000000000        9.3441820590319548E-016
 chl          76   1.8698915979065108E-010   3.3683257480631986E-010  0.55513977500000000     
 chl2c          77  0.52973029999999999        3.7138172437479272E-002  0.52973029999999999        0.0000000000000000        9.2657737603686343E-016
 chl          77   1.7843042090143512E-010   3.3683257480539652E-010  0.52973029999999999     
 chl2c          78  0.45117492500000000        4.7515248899399322E-002  0.45117492500000000        0.0000000000000000        6.2260368064053510E-019
 chl          78   1.5197041165452336E-010   3.3683257475916544E-010  0.45117492500000000     
 prod   2.3922683012497562E-010   0.0000000000000000        10.000000000000000     
 chl2c           1  0.60826437499999997        3.7477407714772232E-002  0.60826437499999997        0.0000000000000000        9.3244002788784920E-016
 chl           1   1.0807847074070880E-014   1.7768338108032187E-014  0.60826437499999997     
 chl2c           2  0.48302390000000001        3.2640259920490348E-002  0.48302390000000001        0.0000000000000000        1.1302828387937469E-020
 chl           2   7.3216556694008352E-017   1.5157957337930555E-016  0.48302390000000001     
 chl2c           3  0.75128689999999998        3.7922212503796585E-002  0.75128689999999998        0.0000000000000000        7.3792148021612350E-006
 chl           3   1.3349119655335366E-014   1.7768338108032187E-014  0.75128689999999998     
 chl2c           4  0.77318742499999993        3.7976509103863923E-002  0.77318742499999993        0.0000000000000000        9.3244002788784920E-016
 chl           4   1.3738255588278777E-014   1.7768338108032187E-014  0.77318742499999993     
 chl2c           5  0.48489679999999996        2.5710500362372445E-002  0.48489679999999996        0.0000000000000000        5.3956951456359810E-016
 chl           5   7.3500450076990437E-017   1.5157957337930555E-016  0.48489679999999996     
 chl2c           6  0.29222855000000003        3.1261039902252048E-002  0.29222855000000003        0.0000000000000000        1.4164522529342925E-019
 chl           6   4.4295878938253066E-017   1.5157957337930555E-016  0.29222855000000003     
 chl2c           7  0.22770740000000000        4.3064391842467263E-002  0.22770740000000000        0.0000000000000000        1.1029132326361422E-020
 chl           7   3.4515790547310881E-017   1.5157957337930555E-016  0.22770740000000000     
 chl2c           8  0.49578364999999996        4.7969800906495587E-002  0.49578364999999996        0.0000000000000000        1.1719224667459209E-020
 chl           8   7.5150674155434939E-017   1.5157957337930555E-016  0.49578364999999996     
 chl2c           9  0.28700202499999999        2.4803669054600401E-002  0.28700202499999999        0.0000000000000000        5.4184070769330693E-016
 chl           9   4.3503644508496788E-017   1.5157957337930555E-016  0.28700202499999999     
 chl2c          10  0.39094662499999999        2.5387016219684602E-002  0.39094662499999999        0.0000000000000000        5.4184857125136777E-016
 chl          10   5.9259522631579349E-017   1.5157957337930555E-016  0.39094662499999999     
 chl2c          11  0.49737575000000001        2.1820572217820047E-002  0.49737575000000001        0.0000000000000000        4.5421923739974123E-006
 chl          11   7.5392003994212132E-017   1.5157957337930555E-016  0.49737575000000001     
 chl2c          12  0.30768942500000002        4.5290941298723353E-002  0.30768942500000002        0.0000000000000000        3.2177742953633038E-011
 chl          12   4.6639431774823831E-017   1.5157957337930555E-016  0.30768942500000002     
 chl2c          13  0.75666275000000005        3.7935816987997487E-002  0.75666275000000005        0.0000000000000000        6.1927231077836563E-006
 chl          13   1.3444639575753275E-014   1.7768338108031979E-014  0.75666275000000005     
 chl2c          14  0.39804095000000000        4.6856526101924839E-002  0.39804095000000000        0.0000000000000000        3.7504574029558116E-010
 chl          14   6.0334877388493496E-017   1.5157957337930555E-016  0.39804095000000000     
 chl2c          15  0.25607262500000000        2.0954299823745293E-002  0.25607262500000000        0.0000000000000000        5.4323449681346218E-016
 chl          15   3.8815379251618896E-017   1.5157957337930555E-016  0.25607262500000000     
 chl2c          16  0.71433214999999994        3.7823443882273475E-002  0.71433214999999994        0.0000000000000000        3.9126583583824555E-006
 chl          16   1.2692495162637564E-014   1.7768338108032187E-014  0.71433214999999994     
 chl2c          17  0.62580860000000005        3.7542254757581245E-002  0.62580860000000005        0.0000000000000000        7.8712422054046258E-006
 chl          17   1.1119578795714273E-014   1.7768338108032187E-014  0.62580860000000005     
 chl2c          18  0.47925950000000000        2.5694475239060960E-002  0.47925950000000000        0.0000000000000000        2.4706922125955277E-006
 chl          18   7.2645950547979291E-017   1.5157957337930555E-016  0.47925950000000000     
 chl2c          19  0.63367130000000005        3.7570220750293731E-002  0.63367130000000005        0.0000000000000000        9.2840765329695369E-016
 chl          19   1.1259285907756298E-014   1.7768338108032187E-014  0.63367130000000005     
 chl2c          20  0.50678202500000002        3.7020645196759419E-002  0.50678202500000002        0.0000000000000000        7.0600301462484229E-006
 chl          20   9.0046743672731150E-015   1.7768338108031979E-014  0.50678202500000002     
 chl2c          21  0.71973185000000006        3.7838475073783531E-002  0.71973185000000006        0.0000000000000000        9.3329238622215379E-016
 chl          21   1.2788438857919357E-014   1.7768338108031979E-014  0.71973185000000006     
 chl2c          22  0.64616892500000001        3.7613353106285476E-002  0.64616892500000001        0.0000000000000000        9.3244002788784920E-016
 chl          22   1.1481347934303693E-014   1.7768338108032187E-014  0.64616892500000001     
 chl2c          23  0.41564179999999995        3.2286562315070731E-002  0.41564179999999995        0.0000000000000000        1.6134910037612830E-020
 chl          23   6.3002806722606631E-017   1.5157957337930555E-016  0.41564179999999995     
 chl2c          24  0.57597492500000003        3.7348402796863071E-002  0.57597492500000003        0.0000000000000000        6.5729455677631030E-006
 chl          24   1.0234117209148361E-014   1.7768338108031979E-014  0.57597492500000003     
 chl2c          25  0.31406487500000002        4.5426679235459781E-002  0.31406487500000002        0.0000000000000000        1.2288953596629575E-020
 chl          25   4.7605819765924927E-017   1.5157957337930555E-016  0.31406487500000002     
 chl2c          26  0.49427735000000000        4.7955660680174553E-002  0.49427735000000000        0.0000000000000000        9.4022034709233291E-011
 chl          26   7.4922349844053688E-017   1.5157957337930555E-016  0.49427735000000000     
 chl2c          27  0.30964730000000001        4.5333133499525620E-002  0.30964730000000001        0.0000000000000000        9.0280270633343312E-010
 chl          27   4.6936205632053844E-017   1.5157957337930555E-016  0.30964730000000001     
 chl2c          28  0.28776342500000002        3.1209236063453518E-002  0.28776342500000002        0.0000000000000000        8.8648558243149096E-010
 chl          28   4.3619057195667790E-017   1.5157957337930555E-016  0.28776342500000002     
 chl2c          29  0.68676297499999994        3.7743217595736761E-002  0.68676297499999994        0.0000000000000000        9.3416903071754564E-016
 chl          29   1.2202636739877912E-014   1.7768338108031979E-014  0.68676297499999994     
 chl2c          30  0.38930277499999999        2.5380056985171612E-002  0.38930277499999999        0.0000000000000000        4.5882853000844037E-006
 chl          30   5.9010348549879776E-017   1.5157957337930555E-016  0.38930277499999999     
 chl2c          31  0.63559385000000002        3.7576959810037038E-002  0.63559385000000002        0.0000000000000000        9.3635891854991302E-016
 chl          31   1.1293446426185761E-014   1.7768338108031979E-014  0.63559385000000002     
 chl2c          32  0.24722667500000001        2.0893126428578448E-002  0.24722667500000001        0.0000000000000000        5.4365799904154347E-016
 chl          32   3.7474513924484227E-017   1.5157957337930555E-016  0.24722667500000001     
 chl2c          33  0.60343137499999999        3.7458922634011876E-002  0.60343137499999999        0.0000000000000000        9.2987482433294788E-016
 chl          33   1.0721972695994635E-014   1.7768338108031979E-014  0.60343137499999999     
 chl2c          34  0.38241020000000003        2.5350269098008315E-002  0.38241020000000003        0.0000000000000000        5.3925601873720718E-016
 chl          34   5.7965574971894911E-017   1.5157957337930555E-016  0.38241020000000003     
 chl2c          35  0.49574644999999995        2.5740370148566064E-002  0.49574644999999995        0.0000000000000000        4.2585753655487830E-006
 chl          35   7.5145035395305218E-017   1.5157957337930555E-016  0.49574644999999995     
 chl2c          36  0.69587337500000002        3.7770393924465726E-002  0.69587337500000002        0.0000000000000000        6.6561172749064043E-006
 chl          36   1.2364513407377473E-014   1.7768338108032187E-014  0.69587337500000002     
 chl2c          37  0.33194060000000003        2.1353674699533250E-002  0.33194060000000003        0.0000000000000000        1.4073947834761137E-006
 chl          37   5.0315414535270716E-017   1.5157957337930555E-016  0.33194060000000003     
 chl2c          38  0.38455722500000000        2.1543295686358745E-002  0.38455722500000000        0.0000000000000000        3.9852068992481765E-006
 chl          38   5.8291020105429616E-017   1.5157957337930555E-016  0.38455722500000000     
 chl2c          39  0.47091117500000002        2.5670077108751441E-002  0.47091117500000002        0.0000000000000000        3.1703161114838981E-006
 chl          39   7.1380515006047501E-017   1.5157957337930555E-016  0.47091117500000002     
 chl2c          40  0.66875547499999999        3.7687445774703773E-002  0.66875547499999999        0.0000000000000000        3.9334892997602323E-006
 chl          40   1.1882673391397666E-014   1.7768338108032187E-014  0.66875547499999999     
 chl2c          41  0.44304987499999998        2.5582381488167241E-002  0.44304987499999998        0.0000000000000000        5.3742548697639058E-016
 chl          41   6.7157311038254653E-017   1.5157957337930555E-016  0.44304987499999998     
 chl2c          42  0.76234377499999995        3.7949995630725070E-002  0.76234377499999995        0.0000000000000000        2.9652331531413015E-006
 chl          42   1.3545581948753456E-014   1.7768338108031979E-014  0.76234377499999995     
 chl2c          43  0.29539925000000000        2.1185090152268007E-002  0.29539925000000000        0.0000000000000000        5.4366008021825960E-016
 chl          43   4.4776492291566827E-017   1.5157957337930555E-016  0.29539925000000000     
 chl2c          44  0.62417262500000004        3.7536352708156646E-002  0.62417262500000004        0.0000000000000000        7.2537143886284059E-006
 chl          44   1.1090510238777855E-014   1.7768338108031979E-014  0.62417262500000004     
 chl2c          45  0.37662252499999999        4.6544927192009838E-002  0.37662252499999999        0.0000000000000000        1.4855638529509497E-020
 chl          45   5.7088281664536836E-017   1.5157957337930555E-016  0.37662252499999999     
 chl2c          46  0.51876034999999998        3.7083195475449568E-002  0.51876034999999998        0.0000000000000000        9.3633199416104663E-016
 chl          46   9.2175092958410065E-015   1.7768338108031979E-014  0.51876034999999998     
 chl2c          47  0.61962282499999999        3.7519784612651236E-002  0.61962282499999999        0.0000000000000000        7.9082026748367772E-006
 chl          47   1.1009667854053929E-014   1.7768338108031979E-014  0.61962282499999999     
 chl2c          48  0.71424949999999998        3.7823212136301673E-002  0.71424949999999998        0.0000000000000000        4.9764698661367665E-006
 chl          48   1.2691026609492787E-014   1.7768338108031979E-014  0.71424949999999998     
 chl2c          49  0.53276120000000005        3.7152990741888416E-002  0.53276120000000005        0.0000000000000000        7.8790164605364085E-006
 chl          49   9.4662811324408479E-015   1.7768338108031979E-014  0.53276120000000005     
 chl2c          50  0.38132569999999999        2.1533072915600981E-002  0.38132569999999999        0.0000000000000000        5.4081536789156119E-016
 chl          50   5.7801186924565048E-017   1.5157957337930555E-016  0.38132569999999999     
 chl2c          51  0.22275920000000002        2.0700971146093840E-002  0.22275920000000002        0.0000000000000000        4.1079685809751690E-006
 chl          51   3.3765744502315402E-017   1.5157957337930555E-016  0.22275920000000002     
 chl2c          52  0.63698869999999996        3.7581825176985564E-002  0.63698869999999996        0.0000000000000000        5.4305382392171693E-006
 chl          52   1.1318230592595882E-014   1.7768338108032187E-014  0.63698869999999996     
 chl2c          53  0.75269794999999995        3.7925801262726190E-002  0.75269794999999995        0.0000000000000000        2.1323683202097749E-006
 chl          53   1.3374191668822704E-014   1.7768338108032187E-014  0.75269794999999995     
 chl2c          54  0.51861124999999997        3.7082433371327092E-002  0.51861124999999997        0.0000000000000000        7.8390814657275412E-006
 chl          54   9.2148600366290995E-015   1.7768338108031979E-014  0.51861124999999997     
 chl2c          55  0.57808280000000001        3.7357235588660491E-002  0.57808280000000001        0.0000000000000000        9.3785047495367134E-016
 chl          55   1.0271570644837830E-014   1.7768338108031979E-014  0.57808280000000001     
 chl2c          56  0.61626080000000005        3.7507394187257688E-002  0.61626080000000005        0.0000000000000000        6.0948000449780793E-006
 chl          56   1.0949930257126404E-014   1.7768338108032187E-014  0.61626080000000005     
 chl2c          57  0.68163462500000005        3.7727617852646313E-002  0.68163462500000005        0.0000000000000000        9.3832777899607472E-016
 chl          57   1.2111514483141588E-014   1.7768338108031979E-014  0.68163462500000005     
 chl2c          58  0.69416802499999997        3.7765358178394853E-002  0.69416802499999997        0.0000000000000000        9.3244002788784920E-016
 chl          58   1.2334212171984940E-014   1.7768338108032187E-014  0.69416802499999997     
 chl2c          59  0.53705127500000005        3.7173699120809672E-002  0.53705127500000005        0.0000000000000000        9.3909834352173217E-016
 chl          59   9.5425086355496625E-015   1.7768338108031979E-014  0.53705127500000005     
 chl2c          60  0.64452155000000000        3.7607757740906807E-002  0.64452155000000000        0.0000000000000000        9.2749795401307777E-016
 chl          60   1.1452076818312839E-014   1.7768338108031979E-014  0.64452155000000000     
 chl2c          61  0.70794139999999994        3.7805373434125003E-002  0.70794139999999994        0.0000000000000000        7.4132945632089170E-006
 chl          61   1.2578942155873509E-014   1.7768338108031979E-014  0.70794139999999994     
 chl2c          62  0.76481592499999995        3.7956103087269030E-002  0.76481592499999995        0.0000000000000000        4.7656107512544685E-006
 chl          62   1.3589507945807227E-014   1.7768338108031979E-014  0.76481592499999995     
 chl2c          63  0.72597904999999996        3.7855601011927406E-002  0.72597904999999996        0.0000000000000000        9.2795626006125828E-016
 chl          63   1.2899441219748003E-014   1.7768338108032187E-014  0.72597904999999996     
 chl2c          64  0.48435739999999999        2.5708982294816416E-002  0.48435739999999999        0.0000000000000000        4.3942806793074038E-006
 chl          64   7.3418688055109655E-017   1.5157957337930555E-016  0.48435739999999999     
 chl2c          65  0.76379975000000000        3.7953597170552002E-002  0.76379975000000000        0.0000000000000000        9.3121393390884156E-016
 chl          65   1.3571452204830457E-014   1.7768338108032187E-014  0.76379975000000000     
 chl2c          66  0.35213202499999996        3.1840477731474713E-002  0.35213202499999996        0.0000000000000000        9.6150744653818848E-011
 chl          66   5.3376022122690953E-017   1.5157957337930555E-016  0.35213202499999996     
 chl2c          67  0.75736760000000003        3.7937587124568600E-002  0.75736760000000003        0.0000000000000000        7.8774062899188931E-006
 chl          67   1.3457163588868721E-014   1.7768338108031979E-014  0.75736760000000003     
 chl2c          68  0.72590779999999999        3.7855407263856986E-002  0.72590779999999999        0.0000000000000000        9.3244002788784920E-016
 chl          68   1.2898175225657808E-014   1.7768338108032187E-014  0.72590779999999999     
 chl2c          69  0.45524217500000003        2.1732330561541505E-002  0.45524217500000003        0.0000000000000000        5.3964182429451705E-016
 chl          69   6.9005414670767162E-017   1.5157957337930555E-016  0.45524217500000003     
 chl2c          70  0.48694062500000002        3.2658010878182209E-002  0.48694062500000002        0.0000000000000000        1.0965808832746529E-009
 chl          70   7.3810252198552411E-017   1.5157957337930555E-016  0.48694062500000002     
 chl2c          71  0.23986107500000001        4.3481058864416305E-002  0.23986107500000001        0.0000000000000000        1.3661506462518739E-020
 chl          71   3.6358039418801615E-017   1.5157957337930555E-016  0.23986107500000001     
 chl2c          72  0.62790522500000001        3.7549776402781669E-002  0.62790522500000001        0.0000000000000000        6.1896772346347542E-006
 chl          72   1.1156832337600025E-014   1.7768338108032187E-014  0.62790522500000001     
 chl2c          73  0.35362212500000001        3.1852614277819484E-002  0.35362212500000001        0.0000000000000000        9.2122086861315051E-011
 chl          73   5.3601890844983462E-017   1.5157957337930555E-016  0.35362212500000001     
 chl2c          74  0.64719590000000005        3.7616827685877569E-002  0.64719590000000005        0.0000000000000000        9.3433138285687090E-016
 chl          74   1.1499595573332054E-014   1.7768338108031979E-014  0.64719590000000005     
 chl2c          75  0.71554212500000003        3.7826830779512356E-002  0.71554212500000003        0.0000000000000000        6.9012477022948942E-006
 chl          75   1.2713994407539831E-014   1.7768338108032187E-014  0.71554212500000003     
 chl2c          76  0.55513977500000000        3.7257729557919804E-002  0.55513977500000000        0.0000000000000000        9.3244002788784920E-016
 chl          76   9.8639112194169146E-015   1.7768338108032187E-014  0.55513977500000000     
 chl2c          77  0.52973029999999999        3.7138172437479272E-002  0.52973029999999999        0.0000000000000000        9.2657737487351053E-016
 chl          77   9.4124270764692127E-015   1.7768338108031979E-014  0.52973029999999999     
 chl2c          78  0.45117492500000000        4.7515248899399322E-002  0.45117492500000000        0.0000000000000000        1.3582284705509847E-019
 chl          78   6.8388902650940178E-017   1.5157957337930555E-016  0.45117492500000000     
 prod   5.5431311025778796E-011   0.0000000000000000        10.000000000000000     
 chl2c           1  0.60826437499999997        3.7477407714772232E-002  0.60826437499999997        0.0000000000000000        9.3488744170046675E-016
 chl           1   7.8944774172585519E-021   1.2978694366670006E-020  0.60826437499999997     
 chl2c           2  0.48302390000000001        3.2640259920490348E-002  0.48302390000000001        0.0000000000000000        4.1656335350118232E-021
 chl           2   2.4398292615590814E-021   5.0511563952820578E-021  0.48302390000000001     
 chl2c           3  0.75128689999999998        3.7922212503796585E-002  0.75128689999999998        0.0000000000000000        7.4226763924706369E-006
 chl           3   9.7507230567829718E-021   1.2978694366670006E-020  0.75128689999999998     
 chl2c           4  0.77318742499999993        3.7976509103863923E-002  0.77318742499999993        0.0000000000000000        9.3488744170046675E-016
 chl           4   1.0034963277227587E-020   1.2978694366670006E-020  0.77318742499999993     
 chl2c           5  0.48489679999999996        2.5710500362372445E-002  0.48489679999999996        0.0000000000000000        5.3956951449413052E-016
 chl           5   2.4492895723718046E-021   5.0511563952820578E-021  0.48489679999999996     
 chl2c           6  0.29222855000000003        3.1261039902252048E-002  0.29222855000000003        0.0000000000000000        5.4985037771399579E-020
 chl           6   1.4760921092165027E-021   5.0511563952820578E-021  0.29222855000000003     
 chl2c           7  0.22770740000000000        4.3064391842467263E-002  0.22770740000000000        0.0000000000000000        4.0647621548264658E-021
 chl           7   1.1501856897630496E-021   5.0511563952820578E-021  0.22770740000000000     
 chl2c           8  0.49578364999999996        4.7969800906495587E-002  0.49578364999999996        0.0000000000000000        4.3190975651012983E-021
 chl           8   2.5042807543737813E-021   5.0511563952820578E-021  0.49578364999999996     
 chl2c           9  0.28700202499999999        2.4803669054600401E-002  0.28700202499999999        0.0000000000000000        5.4184070763723272E-016
 chl           9   1.4496921140376510E-021   5.0511563952820578E-021  0.28700202499999999     
 chl2c          10  0.39094662499999999        2.5387016219684602E-002  0.39094662499999999        0.0000000000000000        5.4184857119534030E-016
 chl          10   1.9747325450826866E-021   5.0511563952820578E-021  0.39094662499999999     
 chl2c          11  0.49737575000000001        2.1820572217820047E-002  0.49737575000000001        0.0000000000000000        4.4806826471958387E-006
 chl          11   2.5123227004707101E-021   5.0511563952820578E-021  0.49737575000000001     
 chl2c          12  0.30768942500000002        4.5290941298723353E-002  0.30768942500000002        0.0000000000000000        6.9842575526411741E-012
 chl          12   1.5541874068494091E-021   5.0511563952820578E-021  0.30768942500000002     
 chl2c          13  0.75666275000000005        3.7935816987997487E-002  0.75666275000000005        0.0000000000000000        5.6025665057751794E-006
 chl          13   9.8204945708940007E-021   1.2978694366669959E-020  0.75666275000000005     
 chl2c          14  0.39804095000000000        4.6856526101924839E-002  0.39804095000000000        0.0000000000000000        1.8389395263958720E-010
 chl          14   2.0105670901766457E-021   5.0511563952820578E-021  0.39804095000000000     
 chl2c          15  0.25607262500000000        2.0954299823745293E-002  0.25607262500000000        0.0000000000000000        5.4323449676566411E-016
 chl          15   1.2934628774254141E-021   5.0511563952820578E-021  0.25607262500000000     
 chl2c          16  0.71433214999999994        3.7823443882273475E-002  0.71433214999999994        0.0000000000000000        3.1287627152017929E-006
 chl          16   9.2710986511362737E-021   1.2978694366670006E-020  0.71433214999999994     
 chl2c          17  0.62580860000000005        3.7542254757581245E-002  0.62580860000000005        0.0000000000000000        7.7471903841940264E-006
 chl          17   8.1221785514336441E-021   1.2978694366670006E-020  0.62580860000000005     
 chl2c          18  0.47925950000000000        2.5694475239060960E-002  0.47925950000000000        0.0000000000000000        2.9037303024750227E-006
 chl          18   2.4208146884246815E-021   5.0511563952820578E-021  0.47925950000000000     
 chl2c          19  0.63367130000000005        3.7570220750293731E-002  0.63367130000000005        0.0000000000000000        9.2840765308397663E-016
 chl          19   8.2242261316304600E-021   1.2978694366670006E-020  0.63367130000000005     
 chl2c          20  0.50678202500000002        3.7020645196759419E-002  0.50678202500000002        0.0000000000000000        6.6221319558274348E-006
 chl          20   6.5773690129970951E-021   1.2978694366669959E-020  0.50678202500000002     
 chl2c          21  0.71973185000000006        3.7838475073783531E-002  0.71973185000000006        0.0000000000000000        9.3329238603702707E-016
 chl          21   9.3411797071079486E-021   1.2978694366669959E-020  0.71973185000000006     
 chl2c          22  0.64616892500000001        3.7613353106285476E-002  0.64616892500000001        0.0000000000000000        9.3488744170046675E-016
 chl          22   8.3864289868147133E-021   1.2978694366670006E-020  0.64616892500000001     
 chl2c          23  0.41564179999999995        3.2286562315070731E-002  0.41564179999999995        0.0000000000000000        5.9465199449353759E-021
 chl          23   2.0994717362165456E-021   5.0511563952820578E-021  0.41564179999999995     
 chl2c          24  0.57597492500000003        3.7348402796863071E-002  0.57597492500000003        0.0000000000000000        6.7715607541182189E-006
 chl          24   7.4754025144406531E-021   1.2978694366669959E-020  0.57597492500000003     
 chl2c          25  0.31406487500000002        4.5426679235459781E-002  0.31406487500000002        0.0000000000000000        4.5290730154443999E-021
 chl          25   1.5863908018897102E-021   5.0511563952820578E-021  0.31406487500000002     
 chl2c          26  0.49427735000000000        4.7955660680174553E-002  0.49427735000000000        0.0000000000000000        3.3906631764066056E-011
 chl          26   2.4966721974955680E-021   5.0511563952820578E-021  0.49427735000000000     
 chl2c          27  0.30964730000000001        4.5333133499525620E-002  0.30964730000000001        0.0000000000000000        3.4397975720970892E-010
 chl          27   1.5640769396768221E-021   5.0511563952820578E-021  0.30964730000000001     
 chl2c          28  0.28776342500000002        3.1209236063453518E-002  0.28776342500000002        0.0000000000000000        3.3335551659988787E-010
 chl          28   1.4535380645170189E-021   5.0511563952820578E-021  0.28776342500000002     
 chl2c          29  0.68676297499999994        3.7743217595736761E-002  0.68676297499999994        0.0000000000000000        9.3416903053744909E-016
 chl          29   8.9132867548700009E-021   1.2978694366669959E-020  0.68676297499999994     
 chl2c          30  0.38930277499999999        2.5380056985171612E-002  0.38930277499999999        0.0000000000000000        4.5039825762876048E-006
 chl          30   1.9664292016423018E-021   5.0511563952820578E-021  0.38930277499999999     
 chl2c          31  0.63559385000000002        3.7576959810037038E-002  0.63559385000000002        0.0000000000000000        9.3635891838242522E-016
 chl          31   8.2491783204850715E-021   1.2978694366669959E-020  0.63559385000000002     
 chl2c          32  0.24722667500000001        2.0893126428578448E-002  0.24722667500000001        0.0000000000000000        5.4365799899626868E-016
 chl          32   1.2487806005105689E-021   5.0511563952820578E-021  0.24722667500000001     
 chl2c          33  0.60343137499999999        3.7458922634011876E-002  0.60343137499999999        0.0000000000000000        9.2987482412830395E-016
 chl          33   7.8317513873844073E-021   1.2978694366669959E-020  0.60343137499999999     
 chl2c          34  0.38241020000000003        2.5350269098008315E-002  0.38241020000000003        0.0000000000000000        5.3925601866590017E-016
 chl          34   1.9316137273510909E-021   5.0511563952820578E-021  0.38241020000000003     
 chl2c          35  0.49574644999999995        2.5740370148566064E-002  0.49574644999999995        0.0000000000000000        4.3044670098081398E-006
 chl          35   2.5040928513558765E-021   5.0511563952820578E-021  0.49574644999999995     
 chl2c          36  0.69587337500000002        3.7770393924465726E-002  0.69587337500000002        0.0000000000000000        6.8419591965061442E-006
 chl          36   9.0315278520281454E-021   1.2978694366670006E-020  0.69587337500000002     
 chl2c          37  0.33194060000000003        2.1353674699533250E-002  0.33194060000000003        0.0000000000000000        1.9317709222579114E-006
 chl          37   1.6766838845437637E-021   5.0511563952820578E-021  0.33194060000000003     
 chl2c          38  0.38455722500000000        2.1543295686358745E-002  0.38455722500000000        0.0000000000000000        4.1233768203833811E-006
 chl          38   1.9424586864106713E-021   5.0511563952820578E-021  0.38455722500000000     
 chl2c          39  0.47091117500000002        2.5670077108751441E-002  0.47091117500000002        0.0000000000000000        3.4904072907308942E-006
 chl          39   2.3786459932110383E-021   5.0511563952820578E-021  0.47091117500000002     
 chl2c          40  0.66875547499999999        3.7687445774703773E-002  0.66875547499999999        0.0000000000000000        3.1504350800076065E-006
 chl          40   8.6795729160622241E-021   1.2978694366670006E-020  0.66875547499999999     
 chl2c          41  0.44304987499999998        2.5582381488167241E-002  0.44304987499999998        0.0000000000000000        5.3742548689438504E-016
 chl          41   2.2379142095351664E-021   5.0511563952820578E-021  0.44304987499999998     
 chl2c          42  0.76234377499999995        3.7949995630725070E-002  0.76234377499999995        0.0000000000000000        2.1542164098104138E-006
 chl          42   9.8942268580584103E-021   1.2978694366669959E-020  0.76234377499999995     
 chl2c          43  0.29539925000000000        2.1185090152268007E-002  0.29539925000000000        0.0000000000000000        5.4366008017299722E-016
 chl          43   1.4921078107990233E-021   5.0511563952820578E-021  0.29539925000000000     
 chl2c          44  0.62417262500000004        3.7536352708156646E-002  0.62417262500000004        0.0000000000000000        6.8777310086382538E-006
 chl          44   8.1009457319171021E-021   1.2978694366669959E-020  0.62417262500000004     
 chl2c          45  0.37662252499999999        4.6544927192009838E-002  0.37662252499999999        0.0000000000000000        5.4750364969517987E-021
 chl          45   1.9023792757610265E-021   5.0511563952820578E-021  0.37662252499999999     
 chl2c          46  0.51876034999999998        3.7083195475449568E-002  0.51876034999999998        0.0000000000000000        9.3633199399340343E-016
 chl          46   6.7328320321967363E-021   1.2978694366669959E-020  0.51876034999999998     
 chl2c          47  0.61962282499999999        3.7519784612651236E-002  0.61962282499999999        0.0000000000000000        7.7626515360290581E-006
 chl          47   8.0418952682876264E-021   1.2978694366669959E-020  0.61962282499999999     
 chl2c          48  0.71424949999999998        3.7823212136301673E-002  0.71424949999999998        0.0000000000000000        4.2438358058677710E-006
 chl          48   9.2700259620468342E-021   1.2978694366669959E-020  0.71424949999999998     
 chl2c          49  0.53276120000000005        3.7152990741888416E-002  0.53276120000000005        0.0000000000000000        7.7337169329345621E-006
 chl          49   6.9145447852203279E-021   1.2978694366669959E-020  0.53276120000000005     
 chl2c          50  0.38132569999999999        2.1533072915600981E-002  0.38132569999999999        0.0000000000000000        5.4081536782942627E-016
 chl          50   1.9261357482404074E-021   5.0511563952820578E-021  0.38132569999999999     
 chl2c          51  0.22275920000000002        2.0700971146093840E-002  0.22275920000000002        0.0000000000000000        4.2122295216452163E-006
 chl          51   1.1251915576879151E-021   5.0511563952820578E-021  0.22275920000000002     
 chl2c          52  0.63698869999999996        3.7581825176985564E-002  0.63698869999999996        0.0000000000000000        4.7566876824131282E-006
 chl          52   8.2672816523224501E-021   1.2978694366670006E-020  0.63698869999999996     
 chl2c          53  0.75269794999999995        3.7925801262726190E-002  0.75269794999999995        0.0000000000000000        1.3397576077945907E-006
 chl          53   9.7690366434690612E-021   1.2978694366670006E-020  0.75269794999999995     
 chl2c          54  0.51861124999999997        3.7082433371327092E-002  0.51861124999999997        0.0000000000000000        7.6941346137039587E-006
 chl          54   6.7308969088666653E-021   1.2978694366669959E-020  0.51861124999999997     
 chl2c          55  0.57808280000000001        3.7357235588660491E-002  0.57808280000000001        0.0000000000000000        9.3785047479480619E-016
 chl          55   7.5027599798287972E-021   1.2978694366669959E-020  0.57808280000000001     
 chl2c          56  0.61626080000000005        3.7507394187257688E-002  0.61626080000000005        0.0000000000000000        6.4037980724065803E-006
 chl          56   7.9982605733595525E-021   1.2978694366670006E-020  0.61626080000000005     
 chl2c          57  0.68163462500000005        3.7727617852646313E-002  0.68163462500000005        0.0000000000000000        9.3832777883997492E-016
 chl          57   8.8467274676146910E-021   1.2978694366669959E-020  0.68163462500000005     
 chl2c          58  0.69416802499999997        3.7765358178394853E-002  0.69416802499999997        0.0000000000000000        9.3488744170046675E-016
 chl          58   9.0093946355899427E-021   1.2978694366670006E-020  0.69416802499999997     
 chl2c          59  0.53705127500000005        3.7173699120809672E-002  0.53705127500000005        0.0000000000000000        9.3909834337010285E-016
 chl          59   6.9702243574554193E-021   1.2978694366669959E-020  0.53705127500000005     
 chl2c          60  0.64452155000000000        3.7607757740906807E-002  0.64452155000000000        0.0000000000000000        9.2749795379494748E-016
 chl          60   8.3650482101823900E-021   1.2978694366669959E-020  0.64452155000000000     
 chl2c          61  0.70794139999999994        3.7805373434125003E-002  0.70794139999999994        0.0000000000000000        7.4329392770910710E-006
 chl          61   9.1881550601124431E-021   1.2978694366669959E-020  0.70794139999999994     
 chl2c          62  0.76481592499999995        3.7956103087269030E-002  0.76481592499999995        0.0000000000000000        4.0260984246170547E-006
 chl          62   9.9263121373369736E-021   1.2978694366669959E-020  0.76481592499999995     
 chl2c          63  0.72597904999999996        3.7855601011927406E-002  0.72597904999999996        0.0000000000000000        9.2795625984572294E-016
 chl          63   9.4222602065554423E-021   1.2978694366670006E-020  0.72597904999999996     
 chl2c          64  0.48435739999999999        2.5708982294816416E-002  0.48435739999999999        0.0000000000000000        4.3810880234513489E-006
 chl          64   2.4465649786121897E-021   5.0511563952820578E-021  0.48435739999999999     
 chl2c          65  0.76379975000000000        3.7953597170552002E-002  0.76379975000000000        0.0000000000000000        9.3121393371182750E-016
 chl          65   9.9131235125889596E-021   1.2978694366670006E-020  0.76379975000000000     
 chl2c          66  0.35213202499999996        3.1840477731474713E-002  0.35213202499999996        0.0000000000000000        3.5841017971636153E-011
 chl          66   1.7786739300623714E-021   5.0511563952820578E-021  0.35213202499999996     
 chl2c          67  0.75736760000000003        3.7937587124568600E-002  0.75736760000000003        0.0000000000000000        7.7318886996261803E-006
 chl          67   9.8296426036183473E-021   1.2978694366669959E-020  0.75736760000000003     
 chl2c          68  0.72590779999999999        3.7855407263856986E-002  0.72590779999999999        0.0000000000000000        9.3488744170046675E-016
 chl          68   9.4213354745818171E-021   1.2978694366670006E-020  0.72590779999999999     
 chl2c          69  0.45524217500000003        2.1732330561541505E-002  0.45524217500000003        0.0000000000000000        5.3964182422547427E-016
 chl          69   2.2994994236533638E-021   5.0511563952820578E-021  0.45524217500000003     
 chl2c          70  0.48694062500000002        3.2658010878182209E-002  0.48694062500000002        0.0000000000000000        4.1215298397054646E-010
 chl          70   2.4596132520913924E-021   5.0511563952820578E-021  0.48694062500000002     
 chl2c          71  0.23986107500000001        4.3481058864416305E-002  0.23986107500000001        0.0000000000000000        5.0349329651961680E-021
 chl          71   1.2115758029654794E-021   5.0511563952820578E-021  0.23986107500000001     
 chl2c          72  0.62790522500000001        3.7549776402781669E-002  0.62790522500000001        0.0000000000000000        5.6134292790126880E-006
 chl          72   8.1493900065101626E-021   1.2978694366670006E-020  0.62790522500000001     
 chl2c          73  0.35362212500000001        3.1852614277819484E-002  0.35362212500000001        0.0000000000000000        3.7130849658721304E-011
 chl          73   1.7862006582069815E-021   5.0511563952820578E-021  0.35362212500000001     
 chl2c          74  0.64719590000000005        3.7616827685877569E-002  0.64719590000000005        0.0000000000000000        9.3433138267770718E-016
 chl          74   8.3997577814618949E-021   1.2978694366669959E-020  0.64719590000000005     
 chl2c          75  0.71554212500000003        3.7826830779512356E-002  0.71554212500000003        0.0000000000000000        7.0372379142604891E-006
 chl          75   9.2868025468525851E-021   1.2978694366670006E-020  0.71554212500000003     
 chl2c          76  0.55513977500000000        3.7257729557919804E-002  0.55513977500000000        0.0000000000000000        9.3441820479386259E-016
 chl          76   7.2049894705069550E-021   1.2978694366670006E-020  0.55513977500000000     
 chl2c          77  0.52973029999999999        3.7138172437479272E-002  0.52973029999999999        0.0000000000000000        9.2657737465017612E-016
 chl          77   6.8752076604643874E-021   1.2978694366669959E-020  0.52973029999999999     
 chl2c          78  0.45117492500000000        4.7515248899399322E-002  0.45117492500000000        0.0000000000000000        5.2724586863666442E-020
 chl          78   2.2789551078046528E-021   5.0511563952820578E-021  0.45117492500000000     
 prod   2.0428828075115130E-011   0.0000000000000000        10.000000000000000     
 chl2c           1  0.60826437499999997        3.7477407714772232E-002  0.60826437499999997        0.0000000000000000        9.3573096006435995E-016
 chl           1   3.0413230871476023E-021   5.0000019927972974E-021  0.60826437499999997     
 chl2c           2  0.48302390000000001        3.2640259920490348E-002  0.48302390000000001        0.0000000000000000        1.7849227502349180E-021
 chl           2   2.4151195052714142E-021   5.0000000109133607E-021  0.48302390000000001     
 chl2c           3  0.75128689999999998        3.7922212503796585E-002  0.75128689999999998        0.0000000000000000        7.4349808525334973E-006
 chl           3   3.7564359971625039E-021   5.0000019927972974E-021  0.75128689999999998     
 chl2c           4  0.77318742499999993        3.7976509103863923E-002  0.77318742499999993        0.0000000000000000        9.3870557786064416E-016
 chl           4   3.8659386658058104E-021   5.0000019927972974E-021  0.77318742499999993     
 chl2c           5  0.48489679999999996        2.5710500362372445E-002  0.48489679999999996        0.0000000000000000        5.3956951447090280E-016
 chl           5   2.4244840052918537E-021   5.0000000109133607E-021  0.48489679999999996     
 chl2c           6  0.29222855000000003        3.1261039902252048E-002  0.29222855000000003        0.0000000000000000        2.6152048312964487E-020
 chl           6   1.4611427531891958E-021   5.0000000109133607E-021  0.29222855000000003     
 chl2c           7  0.22770740000000000        4.3064391842467263E-002  0.22770740000000000        0.0000000000000000        1.7417004219319498E-021
 chl           7   1.1385370024850530E-021   5.0000000109133607E-021  0.22770740000000000     
 chl2c           8  0.49578364999999996        4.7969800906495587E-002  0.49578364999999996        0.0000000000000000        1.8506804946854535E-021
 chl           8   2.4789182554106658E-021   5.0000000109133607E-021  0.49578364999999996     
 chl2c           9  0.28700202499999999        2.4803669054600401E-002  0.28700202499999999        0.0000000000000000        5.4184070761848337E-016
 chl           9   1.4350101281321565E-021   5.0000000109133607E-021  0.28700202499999999     
 chl2c          10  0.39094662499999999        2.5387016219684602E-002  0.39094662499999999        0.0000000000000000        5.4184857117660653E-016
 chl          10   1.9547331292665416E-021   5.0000000109133607E-021  0.39094662499999999     
 chl2c          11  0.49737575000000001        2.1820572217820047E-002  0.49737575000000001        0.0000000000000000        4.4271462919565296E-006
 chl          11   2.4868787554280411E-021   5.0000000109133607E-021  0.49737575000000001     
 chl2c          12  0.30768942500000002        4.5290941298723353E-002  0.30768942500000002        0.0000000000000000        1.5256839040662852E-012
 chl          12   1.5384471283579259E-021   5.0000000109133607E-021  0.30768942500000002     
 chl2c          13  0.75666275000000005        3.7935816987997487E-002  0.75666275000000005        0.0000000000000000        5.1320923730067895E-006
 chl          13   3.7833152578754834E-021   5.0000019927972974E-021  0.75666275000000005     
 chl2c          14  0.39804095000000000        4.6856526101924839E-002  0.39804095000000000        0.0000000000000000        9.9398260510446724E-011
 chl          14   1.9902047543439647E-021   5.0000000109133607E-021  0.39804095000000000     
 chl2c          15  0.25607262500000000        2.0954299823745293E-002  0.25607262500000000        0.0000000000000000        5.4323449674968188E-016
 chl          15   1.2803631277946130E-021   5.0000000109133607E-021  0.25607262500000000     
 chl2c          16  0.71433214999999994        3.7823443882273475E-002  0.71433214999999994        0.0000000000000000        2.5490202227858250E-006
 chl          16   3.5716621735191777E-021   5.0000019927972974E-021  0.71433214999999994     
 chl2c          17  0.62580860000000005        3.7542254757581245E-002  0.62580860000000005        0.0000000000000000        7.6726695803670503E-006
 chl          17   3.1290442471096872E-021   5.0000019927972974E-021  0.62580860000000005     
 chl2c          18  0.47925950000000000        2.5694475239060960E-002  0.47925950000000000        0.0000000000000000        3.1724823856750722E-006
 chl          18   2.3962975052303319E-021   5.0000000109133607E-021  0.47925950000000000     
 chl2c          19  0.63367130000000005        3.7570220750293731E-002  0.63367130000000005        0.0000000000000000        9.2840765301276399E-016
 chl          19   3.1683577627784545E-021   5.0000019927972974E-021  0.63367130000000005     
 chl2c          20  0.50678202500000002        3.7020645196759419E-002  0.50678202500000002        0.0000000000000000        6.2630426197145770E-006
 chl          20   2.5339111349138501E-021   5.0000019927972974E-021  0.50678202500000002     
 chl2c          21  0.71973185000000006        3.7838475073783531E-002  0.71973185000000006        0.0000000000000000        9.3329238597512673E-016
 chl          21   3.5986606842796861E-021   5.0000019927972974E-021  0.71973185000000006     
 chl2c          22  0.64616892500000001        3.7613353106285476E-002  0.64616892500000001        0.0000000000000000        9.3808852738110061E-016
 chl          22   3.2308459126836873E-021   5.0000019927972974E-021  0.64616892500000001     
 chl2c          23  0.41564179999999995        3.2286562315070731E-002  0.41564179999999995        0.0000000000000000        2.5480153850225670E-021
 chl          23   2.0782090045360486E-021   5.0000000109133607E-021  0.41564179999999995     
 chl2c          24  0.57597492500000003        3.7348402796863071E-002  0.57597492500000003        0.0000000000000000        6.8725358517651846E-006
 chl          24   2.8798757728012739E-021   5.0000019927972974E-021  0.57597492500000003     
 chl2c          25  0.31406487500000002        4.5426679235459781E-002  0.31406487500000002        0.0000000000000000        1.9406528302234007E-021
 chl          25   1.5703243784275033E-021   5.0000000109133607E-021  0.31406487500000002     
 chl2c          26  0.49427735000000000        4.7955660680174553E-002  0.49427735000000000        0.0000000000000000        1.4264373571997544E-011
 chl          26   2.4713867553942270E-021   5.0000000109133607E-021  0.49427735000000000     
 chl2c          27  0.30964730000000001        4.5333133499525620E-002  0.30964730000000001        0.0000000000000000        1.6131911552719232E-010
 chl          27   1.5482365033792928E-021   5.0000000109133607E-021  0.30964730000000001     
 chl2c          28  0.28776342500000002        3.1209236063453518E-002  0.28776342500000002        0.0000000000000000        1.5402114963470014E-010
 chl          28   1.4388171281404661E-021   5.0000000109133607E-021  0.28776342500000002     
 chl2c          29  0.68676297499999994        3.7743217595736761E-002  0.68676297499999994        0.0000000000000000        9.3416903047723060E-016
 chl          29   3.4338162435794005E-021   5.0000019927972974E-021  0.68676297499999994     
 chl2c          30  0.38930277499999999        2.5380056985171612E-002  0.38930277499999999        0.0000000000000000        4.4424739453507632E-006
 chl          30   1.9465138792486016E-021   5.0000000109133607E-021  0.38930277499999999     
 chl2c          31  0.63559385000000002        3.7576959810037038E-002  0.63559385000000002        0.0000000000000000        9.3635891832642261E-016
 chl          31   3.1779705166097066E-021   5.0000019927972974E-021  0.63559385000000002     
 chl2c          32  0.24722667500000001        2.0893126428578448E-002  0.24722667500000001        0.0000000000000000        5.4365799898113014E-016
 chl          32   1.2361333776980739E-021   5.0000000109133607E-021  0.24722667500000001     
 chl2c          33  0.60343137499999999        3.7458922634011876E-002  0.60343137499999999        0.0000000000000000        9.2987482405987776E-016
 chl          33   3.0171580775164134E-021   5.0000019927972974E-021  0.60343137499999999     
 chl2c          34  0.38241020000000003        2.5350269098008315E-002  0.38241020000000003        0.0000000000000000        5.3925601864205724E-016
 chl          34   1.9120510041733806E-021   5.0000000109133607E-021  0.38241020000000003     
 chl2c          35  0.49574644999999995        2.5740370148566064E-002  0.49574644999999995        0.0000000000000000        4.3081152333800942E-006
 chl          35   2.4787322554102596E-021   5.0000000109133607E-021  0.49574644999999995     
 chl2c          36  0.69587337500000002        3.7770393924465726E-002  0.69587337500000002        0.0000000000000000        6.9343004582790978E-006
 chl          36   3.4793682617345812E-021   5.0000019927972974E-021  0.69587337500000002     
 chl2c          37  0.33194060000000003        2.1353674699533250E-002  0.33194060000000003        0.0000000000000000        2.2891436974924661E-006
 chl          37   1.6597030036225877E-021   5.0000000109133607E-021  0.33194060000000003     
 chl2c          38  0.38455722500000000        2.1543295686358745E-002  0.38455722500000000        0.0000000000000000        4.1827553802204890E-006
 chl          38   1.9227861291968118E-021   5.0000000109133607E-021  0.38455722500000000     
 chl2c          39  0.47091117500000002        2.5670077108751441E-002  0.47091117500000002        0.0000000000000000        3.6724763888956068E-006
 chl          39   2.3545558801392238E-021   5.0000000109133607E-021  0.47091117500000002     
 chl2c          40  0.66875547499999999        3.7687445774703773E-002  0.66875547499999999        0.0000000000000000        2.5709943404987697E-006
 chl          40   3.3437787076941033E-021   5.0000019927972974E-021  0.66875547499999999     
 chl2c          41  0.44304987499999998        2.5582381488167241E-002  0.44304987499999998        0.0000000000000000        5.3742548686696482E-016
 chl          41   2.2152493798351630E-021   5.0000000109133607E-021  0.44304987499999998     
 chl2c          42  0.76234377499999995        3.7949995630725070E-002  0.76234377499999995        0.0000000000000000        1.5690211324093856E-006
 chl          42   3.8117203941966142E-021   5.0000019927972974E-021  0.76234377499999995     
 chl2c          43  0.29539925000000000        2.1185090152268007E-002  0.29539925000000000        0.0000000000000000        5.4366008015786303E-016
 chl          43   1.4769962532237987E-021   5.0000000109133607E-021  0.29539925000000000     
 chl2c          44  0.62417262500000004        3.7536352708156646E-002  0.62417262500000004        0.0000000000000000        6.5670421170778518E-006
 chl          44   3.1208643688495204E-021   5.0000019927972974E-021  0.62417262500000004     
 chl2c          45  0.37662252499999999        4.6544927192009838E-002  0.37662252499999999        0.0000000000000000        2.3459890047365749E-021
 chl          45   1.8831126291102175E-021   5.0000000109133607E-021  0.37662252499999999     
 chl2c          46  0.51876034999999998        3.7083195475449568E-002  0.51876034999999998        0.0000000000000000        9.3633199393734895E-016
 chl          46   2.5938027837842232E-021   5.0000019927972974E-021  0.51876034999999998     
 chl2c          47  0.61962282499999999        3.7519784612651236E-002  0.61962282499999999        0.0000000000000000        7.6560760790973347E-006
 chl          47   3.0981153597826911E-021   5.0000019927972974E-021  0.61962282499999999     
 chl2c          48  0.71424949999999998        3.7823212136301673E-002  0.71424949999999998        0.0000000000000000        3.6819421554249501E-006
 chl          48   3.5712489233544732E-021   5.0000019927972974E-021  0.71424949999999998     
 chl2c          49  0.53276120000000005        3.7152990741888416E-002  0.53276120000000005        0.0000000000000000        7.6268627810851185E-006
 chl          49   2.6638070616850799E-021   5.0000019927972974E-021  0.53276120000000005     
 chl2c          50  0.38132569999999999        2.1533072915600981E-002  0.38132569999999999        0.0000000000000000        5.4081536780865053E-016
 chl          50   1.9066285041615449E-021   5.0000000109133607E-021  0.38132569999999999     
 chl2c          51  0.22275920000000002        2.0700971146093840E-002  0.22275920000000002        0.0000000000000000        4.2505381126097354E-006
 chl          51   1.1137960024310516E-021   5.0000000109133607E-021  0.22275920000000002     
 chl2c          52  0.63698869999999996        3.7581825176985564E-002  0.63698869999999996        0.0000000000000000        4.2378253416066465E-006
 chl          52   3.1849447693893596E-021   5.0000019927972974E-021  0.63698869999999996     
 chl2c          53  0.75269794999999995        3.7925801262726190E-002  0.75269794999999995        0.0000000000000000        7.7947159212057300E-007
 chl          53   3.7634912499744402E-021   5.0000019927972974E-021  0.75269794999999995     
 chl2c          54  0.51861124999999997        3.7082433371327092E-002  0.51861124999999997        0.0000000000000000        7.5871159253373688E-006
 chl          54   2.5930572834870971E-021   5.0000019927972974E-021  0.51861124999999997     
 chl2c          55  0.57808280000000001        3.7357235588660491E-002  0.57808280000000001        0.0000000000000000        9.3785047474168686E-016
 chl          55   2.8904151520018417E-021   5.0000019927972974E-021  0.57808280000000001     
 chl2c          56  0.61626080000000005        3.7507394187257688E-002  0.61626080000000005        0.0000000000000000        6.5954260378149701E-006
 chl          56   3.0813052280828569E-021   5.0000019927972974E-021  0.61626080000000005     
 chl2c          57  0.68163462500000005        3.7727617852646313E-002  0.68163462500000005        0.0000000000000000        9.3832777878778014E-016
 chl          57   3.4081744833596390E-021   5.0000019927972974E-021  0.68163462500000005     
 chl2c          58  0.69416802499999997        3.7765358178394853E-002  0.69416802499999997        0.0000000000000000        9.3738677833255258E-016
 chl          58   3.4708415083361643E-021   5.0000019927972974E-021  0.69416802499999997     
 chl2c          59  0.53705127500000005        3.7173699120809672E-002  0.53705127500000005        0.0000000000000000        9.3909834331940276E-016
 chl          59   2.6852574452343297E-021   5.0000019927972974E-021  0.53705127500000005     
 chl2c          60  0.64452155000000000        3.7607757740906807E-002  0.64452155000000000        0.0000000000000000        9.2749795372201177E-016
 chl          60   3.2226090344008031E-021   5.0000019927972974E-021  0.64452155000000000     
 chl2c          61  0.70794139999999994        3.7805373434125003E-002  0.70794139999999994        0.0000000000000000        7.4181936669859227E-006
 chl          61   3.5397084107837081E-021   5.0000019927972974E-021  0.70794139999999994     
 chl2c          62  0.76481592499999995        3.7956103087269030E-002  0.76481592499999995        0.0000000000000000        3.4618326717602740E-006
 chl          62   3.8240811491231081E-021   5.0000019927972974E-021  0.76481592499999995     
 chl2c          63  0.72597904999999996        3.7855601011927406E-002  0.72597904999999996        0.0000000000000000        9.2795625977365478E-016
 chl          63   3.6298966967290886E-021   5.0000019927972974E-021  0.72597904999999996     
 chl2c          64  0.48435739999999999        2.5708982294816416E-002  0.48435739999999999        0.0000000000000000        4.3518202921251744E-006
 chl          64   2.4217870052859671E-021   5.0000000109133607E-021  0.48435739999999999     
 chl2c          65  0.76379975000000000        3.7953597170552002E-002  0.76379975000000000        0.0000000000000000        9.3121393364595248E-016
 chl          65   3.8190002720980776E-021   5.0000019927972974E-021  0.76379975000000000     
 chl2c          66  0.35213202499999996        3.1840477731474713E-002  0.35213202499999996        0.0000000000000000        1.5376014311594338E-011
 chl          66   1.7606601288429435E-021   5.0000000109133607E-021  0.35213202499999996     
 chl2c          67  0.75736760000000003        3.7937587124568600E-002  0.75736760000000003        0.0000000000000000        7.6245875480043105E-006
 chl          67   3.7868395092801063E-021   5.0000019927972974E-021  0.75736760000000003     
 chl2c          68  0.72590779999999999        3.7855407263856986E-002  0.72590779999999999        0.0000000000000000        9.3869640007592599E-016
 chl          68   3.6295404465871019E-021   5.0000019927972974E-021  0.72590779999999999     
 chl2c          69  0.45524217500000003        2.1732330561541505E-002  0.45524217500000003        0.0000000000000000        5.3964182420238855E-016
 chl          69   2.2762108799682220E-021   5.0000000109133607E-021  0.45524217500000003     
 chl2c          70  0.48694062500000002        3.2658010878182209E-002  0.48694062500000002        0.0000000000000000        1.9032937492042056E-010
 chl          70   2.4347031303141587E-021   5.0000000109133607E-021  0.48694062500000002     
 chl2c          71  0.23986107500000001        4.3481058864416305E-002  0.23986107500000001        0.0000000000000000        2.1574088121450614E-021
 chl          71   1.1993053776176905E-021   5.0000000109133607E-021  0.23986107500000001     
 chl2c          72  0.62790522500000001        3.7549776402781669E-002  0.62790522500000001        0.0000000000000000        5.1621564845774092E-006
 chl          72   3.1395273762878355E-021   5.0000019927972974E-021  0.62790522500000001     
 chl2c          73  0.35362212500000001        3.1852614277819484E-002  0.35362212500000001        0.0000000000000000        1.6674560989411819E-011
 chl          73   1.7681106288592059E-021   5.0000000109133607E-021  0.35362212500000001     
 chl2c          74  0.64719590000000005        3.7616827685877569E-002  0.64719590000000005        0.0000000000000000        9.3433138261780049E-016
 chl          74   3.2359807897302406E-021   5.0000019927972974E-021  0.64719590000000005     
 chl2c          75  0.71554212500000003        3.7826830779512356E-002  0.71554212500000003        0.0000000000000000        7.0966093915445370E-006
 chl          75   3.5777120509304132E-021   5.0000019927972974E-021  0.71554212500000003     
 chl2c          76  0.55513977500000000        3.7257729557919804E-002  0.55513977500000000        0.0000000000000000        9.3441820473412295E-016
 chl          76   2.7756999812810432E-021   5.0000019927972974E-021  0.55513977500000000     
 chl2c          77  0.52973029999999999        3.7138172437479272E-002  0.52973029999999999        0.0000000000000000        9.2657737457550038E-016
 chl          77   2.6486525556451101E-021   5.0000019927972974E-021  0.52973029999999999     
 chl2c          78  0.45117492500000000        4.7515248899399322E-002  0.45117492500000000        0.0000000000000000        2.5076887147049016E-020
 chl          78   2.2558746299238346E-021   5.0000000109133607E-021  0.45117492500000000     
 prod   8.7534638313592473E-012   0.0000000000000000        10.000000000000000     
 chl2c           1  0.60826437499999997        3.7477407714772232E-002  0.60826437499999997        0.0000000000000000        9.3573096004281518E-016
 chl           1   3.0413218750002445E-021   5.0000000000004022E-021  0.60826437499999997     
 chl2c           2  0.48302390000000001        3.2640259920490348E-002  0.48302390000000001        0.0000000000000000        8.8565743623215344E-022
 chl           2   2.4151195000000010E-021   5.0000000000000020E-021  0.48302390000000001     
 chl2c           3  0.75128689999999998        3.7922212503796585E-002  0.75128689999999998        0.0000000000000000        7.4172150906289891E-006
 chl           3   3.7564345000003020E-021   5.0000000000004022E-021  0.75128689999999998     
 chl2c           4  0.77318742499999993        3.7976509103863923E-002  0.77318742499999993        0.0000000000000000        9.3912078107197305E-016
 chl           4   3.8659371250003109E-021   5.0000000000004022E-021  0.77318742499999993     
 chl2c           5  0.48489679999999996        2.5710500362372445E-002  0.48489679999999996        0.0000000000000000        5.3956951446215601E-016
 chl           5   2.4244840000000008E-021   5.0000000000000020E-021  0.48489679999999996     
 chl2c           6  0.29222855000000003        3.1261039902252048E-002  0.29222855000000003        0.0000000000000000        1.4115740400153383E-020
 chl           6   1.4611427500000006E-021   5.0000000000000020E-021  0.29222855000000003     
 chl2c           7  0.22770740000000000        4.3064391842467263E-002  0.22770740000000000        0.0000000000000000        8.6421099693137224E-022
 chl           7   1.1385370000000006E-021   5.0000000000000020E-021  0.22770740000000000     
 chl2c           8  0.49578364999999996        4.7969800906495587E-002  0.49578364999999996        0.0000000000000000        9.1828570201000599E-022
 chl           8   2.4789182500000007E-021   5.0000000000000020E-021  0.49578364999999996     
 chl2c           9  0.28700202499999999        2.4803669054600401E-002  0.28700202499999999        0.0000000000000000        5.4184070761142307E-016
 chl           9   1.4350101250000005E-021   5.0000000000000020E-021  0.28700202499999999     
 chl2c          10  0.39094662499999999        2.5387016219684602E-002  0.39094662499999999        0.0000000000000000        5.4184857116955195E-016
 chl          10   1.9547331250000008E-021   5.0000000000000020E-021  0.39094662499999999     
 chl2c          11  0.49737575000000001        2.1820572217820047E-002  0.49737575000000001        0.0000000000000000        4.3926813014758294E-006
 chl          11   2.4868787500000009E-021   5.0000000000000020E-021  0.49737575000000001     
 chl2c          12  0.30768942500000002        4.5290941298723353E-002  0.30768942500000002        0.0000000000000000        3.3969399515563217E-013
 chl          12   1.5384471250000006E-021   5.0000000000000020E-021  0.30768942500000002     
 chl2c          13  0.75666275000000005        3.7935816987997487E-002  0.75666275000000005        0.0000000000000000        4.8332445792429534E-006
 chl          13   3.7833137500003045E-021   5.0000000000004022E-021  0.75666275000000005     
 chl2c          14  0.39804095000000000        4.6856526101924839E-002  0.39804095000000000        0.0000000000000000        5.7166914990139746E-011
 chl          14   1.9902047500000007E-021   5.0000000000000020E-021  0.39804095000000000     
 chl2c          15  0.25607262500000000        2.0954299823745293E-002  0.25607262500000000        0.0000000000000000        5.4323449674366357E-016
 chl          15   1.2803631250000006E-021   5.0000000000000020E-021  0.25607262500000000     
 chl2c          16  0.71433214999999994        3.7823443882273475E-002  0.71433214999999994        0.0000000000000000        2.1923130538425174E-006
 chl          16   3.5716607500002870E-021   5.0000000000004022E-021  0.71433214999999994     
 chl2c          17  0.62580860000000005        3.7542254757581245E-002  0.62580860000000005        0.0000000000000000        7.6116587215905547E-006
 chl          17   3.1290430000002520E-021   5.0000000000004022E-021  0.62580860000000005     
 chl2c          18  0.47925950000000000        2.5694475239060960E-002  0.47925950000000000        0.0000000000000000        3.3135084247305310E-006
 chl          18   2.3962975000000008E-021   5.0000000000000020E-021  0.47925950000000000     
 chl2c          19  0.63367130000000005        3.7570220750293731E-002  0.63367130000000005        0.0000000000000000        9.2840765298594765E-016
 chl          19   3.1683565000002552E-021   5.0000000000004022E-021  0.63367130000000005     
 chl2c          20  0.50678202500000002        3.7020645196759419E-002  0.50678202500000002        0.0000000000000000        6.0299373607185953E-006
 chl          20   2.5339101250002041E-021   5.0000000000004022E-021  0.50678202500000002     
 chl2c          21  0.71973185000000006        3.7838475073783531E-002  0.71973185000000006        0.0000000000000000        9.3329238595181708E-016
 chl          21   3.5986592500002900E-021   5.0000000000004022E-021  0.71973185000000006     
 chl2c          22  0.64616892500000001        3.7613353106285476E-002  0.64616892500000001        0.0000000000000000        9.3808852736127121E-016
 chl          22   3.2308446250002598E-021   5.0000000000004022E-021  0.64616892500000001     
 chl2c          23  0.41564179999999995        3.2286562315070731E-002  0.41564179999999995        0.0000000000000000        1.2642958062134007E-021
 chl          23   2.0782090000000006E-021   5.0000000000000020E-021  0.41564179999999995     
 chl2c          24  0.57597492500000003        3.7348402796863071E-002  0.57597492500000003        0.0000000000000000        6.9166776917789424E-006
 chl          24   2.8798746250002320E-021   5.0000000000004022E-021  0.57597492500000003     
 chl2c          25  0.31406487500000002        4.5426679235459781E-002  0.31406487500000002        0.0000000000000000        9.6292898652382224E-022
 chl          25   1.5703243750000006E-021   5.0000000000000020E-021  0.31406487500000002     
 chl2c          26  0.49427735000000000        4.7955660680174553E-002  0.49427735000000000        0.0000000000000000        6.9899113703744024E-012
 chl          26   2.4713867500000012E-021   5.0000000000000020E-021  0.49427735000000000     
 chl2c          27  0.30964730000000001        4.5333133499525620E-002  0.30964730000000001        0.0000000000000000        8.6309049239101245E-011
 chl          27   1.5482365000000006E-021   5.0000000000000020E-021  0.30964730000000001     
 chl2c          28  0.28776342500000002        3.1209236063453518E-002  0.28776342500000002        0.0000000000000000        8.1445119693131633E-011
 chl          28   1.4388171250000007E-021   5.0000000000000020E-021  0.28776342500000002     
 chl2c          29  0.68676297499999994        3.7743217595736761E-002  0.68676297499999994        0.0000000000000000        9.3416903045455440E-016
 chl          29   3.4338148750002758E-021   5.0000000000004022E-021  0.68676297499999994     
 chl2c          30  0.38930277499999999        2.5380056985171612E-002  0.38930277499999999        0.0000000000000000        4.4053105743905639E-006
 chl          30   1.9465138750000006E-021   5.0000000000000020E-021  0.38930277499999999     
 chl2c          31  0.63559385000000002        3.7576959810037038E-002  0.63559385000000002        0.0000000000000000        9.3635891830533399E-016
 chl          31   3.1779692500002556E-021   5.0000000000004022E-021  0.63559385000000002     
 chl2c          32  0.24722667500000001        2.0893126428578448E-002  0.24722667500000001        0.0000000000000000        5.4365799897542963E-016
 chl          32   1.2361333750000005E-021   5.0000000000000020E-021  0.24722667500000001     
 chl2c          33  0.60343137499999999        3.7458922634011876E-002  0.60343137499999999        0.0000000000000000        9.2987482403411060E-016
 chl          33   3.0171568750002427E-021   5.0000000000004022E-021  0.60343137499999999     
 chl2c          34  0.38241020000000003        2.5350269098008315E-002  0.38241020000000003        0.0000000000000000        5.3925601863307892E-016
 chl          34   1.9120510000000010E-021   5.0000000000000020E-021  0.38241020000000003     
 chl2c          35  0.49574644999999995        2.5740370148566064E-002  0.49574644999999995        0.0000000000000000        4.3003696959582096E-006
 chl          35   2.4787322500000007E-021   5.0000000000000020E-021  0.49574644999999995     
 chl2c          36  0.69587337500000002        3.7770393924465726E-002  0.69587337500000002        0.0000000000000000        6.9735766842518434E-006
 chl          36   3.4793668750002799E-021   5.0000000000004022E-021  0.69587337500000002     
 chl2c          37  0.33194060000000003        2.1353674699533250E-002  0.33194060000000003        0.0000000000000000        2.4896892131903137E-006
 chl          37   1.6597030000000008E-021   5.0000000000000020E-021  0.33194060000000003     
 chl2c          38  0.38455722500000000        2.1543295686358745E-002  0.38455722500000000        0.0000000000000000        4.2037286208182992E-006
 chl          38   1.9227861250000010E-021   5.0000000000000020E-021  0.38455722500000000     
 chl2c          39  0.47091117500000002        2.5670077108751441E-002  0.47091117500000002        0.0000000000000000        3.7615669100661657E-006
 chl          39   2.3545558750000008E-021   5.0000000000000020E-021  0.47091117500000002     
 chl2c          40  0.66875547499999999        3.7687445774703773E-002  0.66875547499999999        0.0000000000000000        2.2143860756819953E-006
 chl          40   3.3437773750002689E-021   5.0000000000004022E-021  0.66875547499999999     
 chl2c          41  0.44304987499999998        2.5582381488167241E-002  0.44304987499999998        0.0000000000000000        5.3742548685663952E-016
 chl          41   2.2152493750000007E-021   5.0000000000000020E-021  0.44304987499999998     
 chl2c          42  0.76234377499999995        3.7949995630725070E-002  0.76234377499999995        0.0000000000000000        1.2232653515493595E-006
 chl          42   3.8117188750003060E-021   5.0000000000004022E-021  0.76234377499999995     
 chl2c          43  0.29539925000000000        2.1185090152268007E-002  0.29539925000000000        0.0000000000000000        5.4366008015216390E-016
 chl          43   1.4769962500000005E-021   5.0000000000000020E-021  0.29539925000000000     
 chl2c          44  0.62417262500000004        3.7536352708156646E-002  0.62417262500000004        0.0000000000000000        6.3640184460104564E-006
 chl          44   3.1208631250002514E-021   5.0000000000004022E-021  0.62417262500000004     
 chl2c          45  0.37662252499999999        4.6544927192009838E-002  0.37662252499999999        0.0000000000000000        1.1640524346090561E-021
 chl          45   1.8831126250000009E-021   5.0000000000000020E-021  0.37662252499999999     
 chl2c          46  0.51876034999999998        3.7083195475449568E-002  0.51876034999999998        0.0000000000000000        9.3633199391624061E-016
 chl          46   2.5938017500002085E-021   5.0000000000004022E-021  0.51876034999999998     
 chl2c          47  0.61962282499999999        3.7519784612651236E-002  0.61962282499999999        0.0000000000000000        7.5914045580045974E-006
 chl          47   3.0981141250002491E-021   5.0000000000004022E-021  0.61962282499999999     
 chl2c          48  0.71424949999999998        3.7823212136301673E-002  0.71424949999999998        0.0000000000000000        3.3350002254556767E-006
 chl          48   3.5712475000002871E-021   5.0000000000004022E-021  0.71424949999999998     
 chl2c          49  0.53276120000000005        3.7152990741888416E-002  0.53276120000000005        0.0000000000000000        7.5617379773235234E-006
 chl          49   2.6638060000002143E-021   5.0000000000004022E-021  0.53276120000000005     
 chl2c          50  0.38132569999999999        2.1533072915600981E-002  0.38132569999999999        0.0000000000000000        5.4081536780082700E-016
 chl          50   1.9066285000000008E-021   5.0000000000000020E-021  0.38132569999999999     
 chl2c          51  0.22275920000000002        2.0700971146093840E-002  0.22275920000000002        0.0000000000000000        4.2604313379131883E-006
 chl          51   1.1137960000000004E-021   5.0000000000000020E-021  0.22275920000000002     
 chl2c          52  0.63698869999999996        3.7581825176985564E-002  0.63698869999999996        0.0000000000000000        3.9024299751983405E-006
 chl          52   3.1849435000002560E-021   5.0000000000004022E-021  0.63698869999999996     
 chl2c          53  0.75269794999999995        3.7925801262726190E-002  0.75269794999999995        0.0000000000000000        4.5443689100130134E-007
 chl          53   3.7634897500003024E-021   5.0000000000004022E-021  0.75269794999999995     
 chl2c          54  0.51861124999999997        3.7082433371327092E-002  0.51861124999999997        0.0000000000000000        7.5216521392261168E-006
 chl          54   2.5930562500002086E-021   5.0000000000004022E-021  0.51861124999999997     
 chl2c          55  0.57808280000000001        3.7357235588660491E-002  0.57808280000000001        0.0000000000000000        9.3785047472168391E-016
 chl          55   2.8904140000002326E-021   5.0000000000004022E-021  0.57808280000000001     
 chl2c          56  0.61626080000000005        3.7507394187257688E-002  0.61626080000000005        0.0000000000000000        6.6763693470882668E-006
 chl          56   3.0813040000002479E-021   5.0000000000004022E-021  0.61626080000000005     
 chl2c          57  0.68163462500000005        3.7727617852646313E-002  0.68163462500000005        0.0000000000000000        9.3832777876812527E-016
 chl          57   3.4081731250002742E-021   5.0000000000004022E-021  0.68163462500000005     
 chl2c          58  0.69416802499999997        3.7765358178394853E-002  0.69416802499999997        0.0000000000000000        9.3738677831221180E-016
 chl          58   3.4708401250002792E-021   5.0000000000004022E-021  0.69416802499999997     
 chl2c          59  0.53705127500000005        3.7173699120809672E-002  0.53705127500000005        0.0000000000000000        9.3909834330031094E-016
 chl          59   2.6852563750002163E-021   5.0000000000004022E-021  0.53705127500000005     
 chl2c          60  0.64452155000000000        3.7607757740906807E-002  0.64452155000000000        0.0000000000000000        9.2749795369454678E-016
 chl          60   3.2226077500002594E-021   5.0000000000004022E-021  0.64452155000000000     
 chl2c          61  0.70794139999999994        3.7805373434125003E-002  0.70794139999999994        0.0000000000000000        7.3990379311286849E-006
 chl          61   3.5397070000002842E-021   5.0000000000004022E-021  0.70794139999999994     
 chl2c          62  0.76481592499999995        3.7956103087269030E-002  0.76481592499999995        0.0000000000000000        3.1147207105956657E-006
 chl          62   3.8240796250003072E-021   5.0000000000004022E-021  0.76481592499999995     
 chl2c          63  0.72597904999999996        3.7855601011927406E-002  0.72597904999999996        0.0000000000000000        9.2795625974651619E-016
 chl          63   3.6298952500002918E-021   5.0000000000004022E-021  0.72597904999999996     
 chl2c          64  0.48435739999999999        2.5708982294816416E-002  0.48435739999999999        0.0000000000000000        4.3281285832329181E-006
 chl          64   2.4217870000000011E-021   5.0000000000000020E-021  0.48435739999999999     
 chl2c          65  0.76379975000000000        3.7953597170552002E-002  0.76379975000000000        0.0000000000000000        9.3121393362114596E-016
 chl          65   3.8189987500003070E-021   5.0000000000004022E-021  0.76379975000000000     
 chl2c          66  0.35213202499999996        3.1840477731474713E-002  0.35213202499999996        0.0000000000000000        7.6170454307841411E-012
 chl          66   1.7606601250000004E-021   5.0000000000000020E-021  0.35213202499999996     
 chl2c          67  0.75736760000000003        3.7937587124568600E-002  0.75736760000000003        0.0000000000000000        7.5590274702625547E-006
 chl          67   3.7868380000003045E-021   5.0000000000004022E-021  0.75736760000000003     
 chl2c          68  0.72590779999999999        3.7855407263856986E-002  0.72590779999999999        0.0000000000000000        9.3869640005654033E-016
 chl          68   3.6295390000002921E-021   5.0000000000004022E-021  0.72590779999999999     
 chl2c          69  0.45524217500000003        2.1732330561541505E-002  0.45524217500000003        0.0000000000000000        5.3964182419369530E-016
 chl          69   2.2762108750000010E-021   5.0000000000000020E-021  0.45524217500000003     
 chl2c          70  0.48694062500000002        3.2658010878182209E-002  0.48694062500000002        0.0000000000000000        1.0060603837778095E-010
 chl          70   2.4347031250000011E-021   5.0000000000000020E-021  0.48694062500000002     
 chl2c          71  0.23986107500000001        4.3481058864416305E-002  0.23986107500000001        0.0000000000000000        1.0704809537630567E-021
 chl          71   1.1993053750000006E-021   5.0000000000000020E-021  0.23986107500000001     
 chl2c          72  0.62790522500000001        3.7549776402781669E-002  0.62790522500000001        0.0000000000000000        4.8610222084637910E-006
 chl          72   3.1395261250002526E-021   5.0000000000004022E-021  0.62790522500000001     
 chl2c          73  0.35362212500000001        3.1852614277819484E-002  0.35362212500000001        0.0000000000000000        8.4571438238849127E-012
 chl          73   1.7681106250000008E-021   5.0000000000000020E-021  0.35362212500000001     
 chl2c          74  0.64719590000000005        3.7616827685877569E-002  0.64719590000000005        0.0000000000000000        9.3433138259524183E-016
 chl          74   3.2359795000002605E-021   5.0000000000004022E-021  0.64719590000000005     
 chl2c          75  0.71554212500000003        3.7826830779512356E-002  0.71554212500000003        0.0000000000000000        7.1175755177644255E-006
 chl          75   3.5777106250002876E-021   5.0000000000004022E-021  0.71554212500000003     
 chl2c          76  0.55513977500000000        3.7257729557919804E-002  0.55513977500000000        0.0000000000000000        9.3441820471162680E-016
 chl          76   2.7756988750002233E-021   5.0000000000004022E-021  0.55513977500000000     
 chl2c          77  0.52973029999999999        3.7138172437479272E-002  0.52973029999999999        0.0000000000000000        9.2657737454737985E-016
 chl          77   2.6486515000002128E-021   5.0000000000004022E-021  0.52973029999999999     
 chl2c          78  0.45117492500000000        4.7515248899399322E-002  0.45117492500000000        0.0000000000000000        1.3535405211875008E-020
 chl          78   2.2558746250000010E-021   5.0000000000000020E-021  0.45117492500000000     
 prod   4.3433575400889965E-012   0.0000000000000000        10.000000000000000     
 fe   1.3002602267028224E-003
(PID.TID 0000.0001) // =======================================================
(PID.TID 0000.0001) // Begin MONITOR dynamic field statistics
(PID.TID 0000.0001) // =======================================================
(PID.TID 0000.0001) %MON time_tsnumber                =                     2
(PID.TID 0000.0001) %MON time_secondsf                =   7.2000000000000000E+03
(PID.TID 0000.0001) %MON dynstat_eta_max              =   0.0000000000000000E+00
(PID.TID 0000.0001) %MON dynstat_eta_min              =   0.0000000000000000E+00
(PID.TID 0000.0001) %MON dynstat_eta_mean             =   0.0000000000000000E+00
(PID.TID 0000.0001) %MON dynstat_eta_sd               =   0.0000000000000000E+00
(PID.TID 0000.0001) %MON dynstat_eta_del2             =   0.0000000000000000E+00
(PID.TID 0000.0001) %MON dynstat_uvel_max             =   0.0000000000000000E+00
(PID.TID 0000.0001) %MON dynstat_uvel_min             =   0.0000000000000000E+00
(PID.TID 0000.0001) %MON dynstat_uvel_mean            =   0.0000000000000000E+00
(PID.TID 0000.0001) %MON dynstat_uvel_sd              =   0.0000000000000000E+00
(PID.TID 0000.0001) %MON dynstat_uvel_del2            =   0.0000000000000000E+00
(PID.TID 0000.0001) %MON dynstat_vvel_max             =   0.0000000000000000E+00
(PID.TID 0000.0001) %MON dynstat_vvel_min             =   0.0000000000000000E+00
(PID.TID 0000.0001) %MON dynstat_vvel_mean            =   0.0000000000000000E+00
(PID.TID 0000.0001) %MON dynstat_vvel_sd              =   0.0000000000000000E+00
(PID.TID 0000.0001) %MON dynstat_vvel_del2            =   0.0000000000000000E+00
(PID.TID 0000.0001) %MON dynstat_wvel_max             =   0.0000000000000000E+00
(PID.TID 0000.0001) %MON dynstat_wvel_min             =   0.0000000000000000E+00
(PID.TID 0000.0001) %MON dynstat_wvel_mean            =   0.0000000000000000E+00
(PID.TID 0000.0001) %MON dynstat_wvel_sd              =   0.0000000000000000E+00
(PID.TID 0000.0001) %MON dynstat_wvel_del2            =   0.0000000000000000E+00
(PID.TID 0000.0001) %MON dynstat_theta_max            =   2.6326133202982895E+01
(PID.TID 0000.0001) %MON dynstat_theta_min            =   2.6737005429264729E+00
(PID.TID 0000.0001) %MON dynstat_theta_mean           =   5.4735411526788162E+00
(PID.TID 0000.0001) %MON dynstat_theta_sd             =   5.1969661225680159E+00
(PID.TID 0000.0001) %MON dynstat_theta_del2           =   0.0000000000000000E+00
(PID.TID 0000.0001) %MON dynstat_salt_max             =   3.5000000000000000E+01
(PID.TID 0000.0001) %MON dynstat_salt_min             =   3.5000000000000000E+01
(PID.TID 0000.0001) %MON dynstat_salt_mean            =   3.5000000000000007E+01
(PID.TID 0000.0001) %MON dynstat_salt_sd              =   7.1054273576010019E-15
(PID.TID 0000.0001) %MON dynstat_salt_del2            =   0.0000000000000000E+00
(PID.TID 0000.0001) %MON dynstat_sst_max              =   2.6326133202982895E+01
(PID.TID 0000.0001) %MON dynstat_sst_min              =   2.6326133202982895E+01
(PID.TID 0000.0001) %MON dynstat_sst_mean             =   2.6326133202982895E+01
(PID.TID 0000.0001) %MON dynstat_sst_sd               =   0.0000000000000000E+00
(PID.TID 0000.0001) %MON dynstat_sst_del2             =   0.0000000000000000E+00
(PID.TID 0000.0001) %MON dynstat_sss_max              =   3.5000000000000000E+01
(PID.TID 0000.0001) %MON dynstat_sss_min              =   3.5000000000000000E+01
(PID.TID 0000.0001) %MON dynstat_sss_mean             =   3.5000000000000000E+01
(PID.TID 0000.0001) %MON dynstat_sss_sd               =   0.0000000000000000E+00
(PID.TID 0000.0001) %MON dynstat_sss_del2             =   0.0000000000000000E+00
(PID.TID 0000.0001) %MON forcing_qnet_max             =   0.0000000000000000E+00
(PID.TID 0000.0001) %MON forcing_qnet_min             =   0.0000000000000000E+00
(PID.TID 0000.0001) %MON forcing_qnet_mean            =   0.0000000000000000E+00
(PID.TID 0000.0001) %MON forcing_qnet_sd              =   0.0000000000000000E+00
(PID.TID 0000.0001) %MON forcing_qnet_del2            =   0.0000000000000000E+00
(PID.TID 0000.0001) %MON forcing_qsw_max              =   0.0000000000000000E+00
(PID.TID 0000.0001) %MON forcing_qsw_min              =   0.0000000000000000E+00
(PID.TID 0000.0001) %MON forcing_qsw_mean             =   0.0000000000000000E+00
(PID.TID 0000.0001) %MON forcing_qsw_sd               =   0.0000000000000000E+00
(PID.TID 0000.0001) %MON forcing_qsw_del2             =   0.0000000000000000E+00
(PID.TID 0000.0001) %MON forcing_empmr_max            =   0.0000000000000000E+00
(PID.TID 0000.0001) %MON forcing_empmr_min            =   0.0000000000000000E+00
(PID.TID 0000.0001) %MON forcing_empmr_mean           =   0.0000000000000000E+00
(PID.TID 0000.0001) %MON forcing_empmr_sd             =   0.0000000000000000E+00
(PID.TID 0000.0001) %MON forcing_empmr_del2           =   0.0000000000000000E+00
(PID.TID 0000.0001) %MON forcing_fu_max               =   0.0000000000000000E+00
(PID.TID 0000.0001) %MON forcing_fu_min               =   0.0000000000000000E+00
(PID.TID 0000.0001) %MON forcing_fu_mean              =   0.0000000000000000E+00
(PID.TID 0000.0001) %MON forcing_fu_sd                =   0.0000000000000000E+00
(PID.TID 0000.0001) %MON forcing_fu_del2              =   0.0000000000000000E+00
(PID.TID 0000.0001) %MON forcing_fv_max               =   0.0000000000000000E+00
(PID.TID 0000.0001) %MON forcing_fv_min               =   0.0000000000000000E+00
(PID.TID 0000.0001) %MON forcing_fv_mean              =   0.0000000000000000E+00
(PID.TID 0000.0001) %MON forcing_fv_sd                =   0.0000000000000000E+00
(PID.TID 0000.0001) %MON forcing_fv_del2              =   0.0000000000000000E+00
(PID.TID 0000.0001) %MON advcfl_uvel_max              =   0.0000000000000000E+00
(PID.TID 0000.0001) %MON advcfl_vvel_max              =   0.0000000000000000E+00
(PID.TID 0000.0001) %MON advcfl_wvel_max              =   0.0000000000000000E+00
(PID.TID 0000.0001) %MON advcfl_W_hf_max              =   0.0000000000000000E+00
(PID.TID 0000.0001) %MON pe_b_mean                    =   0.0000000000000000E+00
(PID.TID 0000.0001) %MON ke_max                       =   0.0000000000000000E+00
(PID.TID 0000.0001) %MON ke_mean                      =   0.0000000000000000E+00
(PID.TID 0000.0001) %MON ke_vol                       =   4.1199767883484609E+13
(PID.TID 0000.0001) %MON vort_r_min                   =   0.0000000000000000E+00
(PID.TID 0000.0001) %MON vort_r_max                   =   0.0000000000000000E+00
(PID.TID 0000.0001) %MON vort_a_mean                  =  -4.5067801836624727E-05
(PID.TID 0000.0001) %MON vort_a_sd                    =  -4.1359030627651384E-25
(PID.TID 0000.0001) %MON vort_p_mean                  =  -4.5067801836624727E-05
(PID.TID 0000.0001) %MON vort_p_sd                    =   0.0000000000000000E+00
(PID.TID 0000.0001) %MON surfExpan_theta_mean         =   0.0000000000000000E+00
(PID.TID 0000.0001) %MON surfExpan_salt_mean          =   0.0000000000000000E+00
(PID.TID 0000.0001) // =======================================================
(PID.TID 0000.0001) // End MONITOR dynamic field statistics
(PID.TID 0000.0001) // =======================================================
(PID.TID 0000.0001) // =======================================================
(PID.TID 0000.0001) // Begin MONITOR ptracer field statistics
(PID.TID 0000.0001) // =======================================================
(PID.TID 0000.0001) %MON trcstat_ptracer01_max        =   2.0000000000000009E+03
(PID.TID 0000.0001) %MON trcstat_ptracer01_min        =   1.9999996325911650E+03
(PID.TID 0000.0001) %MON trcstat_ptracer01_mean       =   1.9999999891339542E+03
(PID.TID 0000.0001) %MON trcstat_ptracer01_sd         =   5.6877795044682519E-05
(PID.TID 0000.0001) %MON trcstat_ptracer01_del2       =   0.0000000000000000E+00
(PID.TID 0000.0001) %MON trcstat_ptracer02_max        =   2.5625540617884083E-02
(PID.TID 0000.0001) %MON trcstat_ptracer02_min        =   1.8764847993846730E-07
(PID.TID 0000.0001) %MON trcstat_ptracer02_mean       =   6.0625804176978862E-04
(PID.TID 0000.0001) %MON trcstat_ptracer02_sd         =   3.2513527950130327E-03
(PID.TID 0000.0001) %MON trcstat_ptracer02_del2       =   0.0000000000000000E+00
(PID.TID 0000.0001) %MON trcstat_ptracer03_max        =   1.8252015662855829E-02
(PID.TID 0000.0001) %MON trcstat_ptracer03_min        =   3.8786224039580380E-06
(PID.TID 0000.0001) %MON trcstat_ptracer03_mean       =   6.0464808159624794E-04
(PID.TID 0000.0001) %MON trcstat_ptracer03_sd         =   1.9424908394620845E-03
(PID.TID 0000.0001) %MON trcstat_ptracer03_del2       =   0.0000000000000000E+00
(PID.TID 0000.0001) %MON trcstat_ptracer04_max        =   3.3903496291099721E+01
(PID.TID 0000.0001) %MON trcstat_ptracer04_min        =   4.6391064828846675E-02
(PID.TID 0000.0001) %MON trcstat_ptracer04_mean       =   2.3502390684858135E+01
(PID.TID 0000.0001) %MON trcstat_ptracer04_sd         =   7.8161996474219873E+00
(PID.TID 0000.0001) %MON trcstat_ptracer04_del2       =   0.0000000000000000E+00
(PID.TID 0000.0001) %MON trcstat_ptracer05_max        =   2.2436998357850371E+00
(PID.TID 0000.0001) %MON trcstat_ptracer05_min        =   2.1025338414844585E-01
(PID.TID 0000.0001) %MON trcstat_ptracer05_mean       =   1.5821339652875337E+00
(PID.TID 0000.0001) %MON trcstat_ptracer05_sd         =   4.6735003966928368E-01
(PID.TID 0000.0001) %MON trcstat_ptracer05_del2       =   0.0000000000000000E+00
(PID.TID 0000.0001) %MON trcstat_ptracer06_max        =   3.9387401115092409E+01
(PID.TID 0000.0001) %MON trcstat_ptracer06_min        =   1.2247980311011666E+00
(PID.TID 0000.0001) %MON trcstat_ptracer06_mean       =   2.9621889959747815E+01
(PID.TID 0000.0001) %MON trcstat_ptracer06_sd         =   1.1270585097522435E+01
(PID.TID 0000.0001) %MON trcstat_ptracer06_del2       =   0.0000000000000000E+00
(PID.TID 0000.0001) %MON trcstat_ptracer07_max        =   1.3002602267028224E-03
(PID.TID 0000.0001) %MON trcstat_ptracer07_min        =   1.2999707842916636E-03
(PID.TID 0000.0001) %MON trcstat_ptracer07_mean       =   1.2999718262040436E-03
(PID.TID 0000.0001) %MON trcstat_ptracer07_sd         =   1.5455166246030796E-08
(PID.TID 0000.0001) %MON trcstat_ptracer07_del2       =   0.0000000000000000E+00
(PID.TID 0000.0001) %MON trcstat_ptracer08_max        =   3.6546467036702797E-04
(PID.TID 0000.0001) %MON trcstat_ptracer08_min        =  -4.9696249999999995E-19
(PID.TID 0000.0001) %MON trcstat_ptracer08_mean       =   1.0897323672255120E-05
(PID.TID 0000.0001) %MON trcstat_ptracer08_sd         =   5.7130622675423040E-05
(PID.TID 0000.0001) %MON trcstat_ptracer08_del2       =   0.0000000000000000E+00
(PID.TID 0000.0001) %MON trcstat_ptracer09_max        =   8.1794304775708856E-02
(PID.TID 0000.0001) %MON trcstat_ptracer09_min        =  -6.6261666666665177E-20
(PID.TID 0000.0001) %MON trcstat_ptracer09_mean       =   3.4343551092186481E-03
(PID.TID 0000.0001) %MON trcstat_ptracer09_sd         =   1.4785576358655236E-02
(PID.TID 0000.0001) %MON trcstat_ptracer09_del2       =   0.0000000000000000E+00
(PID.TID 0000.0001) %MON trcstat_ptracer10_max        =   5.1121440484818035E-03
(PID.TID 0000.0001) %MON trcstat_ptracer10_min        =  -4.1413541666665735E-21
(PID.TID 0000.0001) %MON trcstat_ptracer10_mean       =   2.1464719432616550E-04
(PID.TID 0000.0001) %MON trcstat_ptracer10_sd         =   9.2409852241595223E-04
(PID.TID 0000.0001) %MON trcstat_ptracer10_del2       =   0.0000000000000000E+00
(PID.TID 0000.0001) %MON trcstat_ptracer11_max        =   5.1121436892177443E-06
(PID.TID 0000.0001) %MON trcstat_ptracer11_min        =  -4.1413541666665755E-24
(PID.TID 0000.0001) %MON trcstat_ptracer11_mean       =   2.1464719463241327E-07
(PID.TID 0000.0001) %MON trcstat_ptracer11_sd         =   9.2409852207421481E-07
(PID.TID 0000.0001) %MON trcstat_ptracer11_del2       =   0.0000000000000000E+00
(PID.TID 0000.0001) %MON trcstat_ptracer12_max        =   2.0687548326815127E-04
(PID.TID 0000.0001) %MON trcstat_ptracer12_min        =  -2.8141249999999997E-19
(PID.TID 0000.0001) %MON trcstat_ptracer12_mean       =   6.1701094924626559E-06
(PID.TID 0000.0001) %MON trcstat_ptracer12_sd         =   3.2305656636347289E-05
(PID.TID 0000.0001) %MON trcstat_ptracer12_del2       =   0.0000000000000000E+00
(PID.TID 0000.0001) %MON trcstat_ptracer13_max        =   4.3519536431214064E-03
(PID.TID 0000.0001) %MON trcstat_ptracer13_min        =   1.8797873544542074E-05
(PID.TID 0000.0001) %MON trcstat_ptracer13_mean       =   1.2616280527975420E-03
(PID.TID 0000.0001) %MON trcstat_ptracer13_sd         =   1.5439354491648745E-03
(PID.TID 0000.0001) %MON trcstat_ptracer13_del2       =   0.0000000000000000E+00
(PID.TID 0000.0001) %MON trcstat_ptracer14_max        =   2.7199710269508790E-04
(PID.TID 0000.0001) %MON trcstat_ptracer14_min        =   1.1748670965338796E-06
(PID.TID 0000.0001) %MON trcstat_ptracer14_mean       =   7.8851753299846378E-05
(PID.TID 0000.0001) %MON trcstat_ptracer14_sd         =   9.6495965572804658E-05
(PID.TID 0000.0001) %MON trcstat_ptracer14_del2       =   0.0000000000000000E+00
(PID.TID 0000.0001) %MON trcstat_ptracer15_max        =   1.6246073438269136E-02
(PID.TID 0000.0001) %MON trcstat_ptracer15_min        =   1.1391880996624707E-03
(PID.TID 0000.0001) %MON trcstat_ptracer15_mean       =   5.4884970873633311E-03
(PID.TID 0000.0001) %MON trcstat_ptracer15_sd         =   5.1699313922489607E-03
(PID.TID 0000.0001) %MON trcstat_ptracer15_del2       =   0.0000000000000000E+00
(PID.TID 0000.0001) %MON trcstat_ptracer16_max        =   2.7199711852782305E-07
(PID.TID 0000.0001) %MON trcstat_ptracer16_min        =   1.1748669679954966E-09
(PID.TID 0000.0001) %MON trcstat_ptracer16_mean       =   7.8851753825588972E-08
(PID.TID 0000.0001) %MON trcstat_ptracer16_sd         =   9.6495967629161692E-08
(PID.TID 0000.0001) %MON trcstat_ptracer16_del2       =   0.0000000000000000E+00
(PID.TID 0000.0001) %MON trcstat_ptracer17_max        =   0.0000000000000000E+00
(PID.TID 0000.0001) %MON trcstat_ptracer17_min        =   0.0000000000000000E+00
(PID.TID 0000.0001) %MON trcstat_ptracer17_mean       =   0.0000000000000000E+00
(PID.TID 0000.0001) %MON trcstat_ptracer17_sd         =   0.0000000000000000E+00
(PID.TID 0000.0001) %MON trcstat_ptracer17_del2       =   0.0000000000000000E+00
(PID.TID 0000.0001) %MON trcstat_ptracer18_max        =   8.7415769256829880E-04
(PID.TID 0000.0001) %MON trcstat_ptracer18_min        =   9.9793750000834328E-21
(PID.TID 0000.0001) %MON trcstat_ptracer18_mean       =   2.6088403223696865E-05
(PID.TID 0000.0001) %MON trcstat_ptracer18_sd         =   1.3664414893058450E-04
(PID.TID 0000.0001) %MON trcstat_ptracer18_del2       =   0.0000000000000000E+00
(PID.TID 0000.0001) %MON trcstat_ptracer19_max        =   8.8380374371790622E-04
(PID.TID 0000.0001) %MON trcstat_ptracer19_min        =   9.9791666666666689E-21
(PID.TID 0000.0001) %MON trcstat_ptracer19_mean       =   2.6334527021267365E-05
(PID.TID 0000.0001) %MON trcstat_ptracer19_sd         =   1.3818288386356934E-04
(PID.TID 0000.0001) %MON trcstat_ptracer19_del2       =   0.0000000000000000E+00
(PID.TID 0000.0001) %MON trcstat_ptracer20_max        =   8.7415769256837036E-04
(PID.TID 0000.0001) %MON trcstat_ptracer20_min        =   9.9793750000834328E-21
(PID.TID 0000.0001) %MON trcstat_ptracer20_mean       =   2.6066315330520763E-05
(PID.TID 0000.0001) %MON trcstat_ptracer20_sd         =   1.3662472610150727E-04
(PID.TID 0000.0001) %MON trcstat_ptracer20_del2       =   0.0000000000000000E+00
(PID.TID 0000.0001) %MON trcstat_ptracer21_max        =   8.9096277284810748E-04
(PID.TID 0000.0001) %MON trcstat_ptracer21_min        =   9.9793750000834328E-21
(PID.TID 0000.0001) %MON trcstat_ptracer21_mean       =   2.6568278107670482E-05
(PID.TID 0000.0001) %MON trcstat_ptracer21_sd         =   1.3919392715058758E-04
(PID.TID 0000.0001) %MON trcstat_ptracer21_del2       =   0.0000000000000000E+00
(PID.TID 0000.0001) %MON trcstat_ptracer22_max        =   8.8879798602629412E-04
(PID.TID 0000.0001) %MON trcstat_ptracer22_min        =   9.9791666666666689E-21
(PID.TID 0000.0001) %MON trcstat_ptracer22_mean       =   2.6472684681213743E-05
(PID.TID 0000.0001) %MON trcstat_ptracer22_sd         =   1.3889864638272516E-04
(PID.TID 0000.0001) %MON trcstat_ptracer22_del2       =   0.0000000000000000E+00
(PID.TID 0000.0001) %MON trcstat_ptracer23_max        =   8.7419459121965387E-04
(PID.TID 0000.0001) %MON trcstat_ptracer23_min        =   9.9791666666666689E-21
(PID.TID 0000.0001) %MON trcstat_ptracer23_mean       =   2.6066316409818354E-05
(PID.TID 0000.0001) %MON trcstat_ptracer23_sd         =   1.3665955840671528E-04
(PID.TID 0000.0001) %MON trcstat_ptracer23_del2       =   0.0000000000000000E+00
(PID.TID 0000.0001) %MON trcstat_ptracer24_max        =   8.8266804672600964E-04
(PID.TID 0000.0001) %MON trcstat_ptracer24_min        =   9.9791666666666689E-21
(PID.TID 0000.0001) %MON trcstat_ptracer24_mean       =   2.6301177841627602E-05
(PID.TID 0000.0001) %MON trcstat_ptracer24_sd         =   1.3797678254982517E-04
(PID.TID 0000.0001) %MON trcstat_ptracer24_del2       =   0.0000000000000000E+00
(PID.TID 0000.0001) %MON trcstat_ptracer25_max        =   8.7419459121948115E-04
(PID.TID 0000.0001) %MON trcstat_ptracer25_min        =   9.9791666666666689E-21
(PID.TID 0000.0001) %MON trcstat_ptracer25_mean       =   2.6076981704838093E-05
(PID.TID 0000.0001) %MON trcstat_ptracer25_sd         =   1.3669982511841139E-04
(PID.TID 0000.0001) %MON trcstat_ptracer25_del2       =   0.0000000000000000E+00
(PID.TID 0000.0001) %MON trcstat_ptracer26_max        =   8.7753279521576356E-04
(PID.TID 0000.0001) %MON trcstat_ptracer26_min        =   9.9791666666666689E-21
(PID.TID 0000.0001) %MON trcstat_ptracer26_mean       =   2.6220244478205434E-05
(PID.TID 0000.0001) %MON trcstat_ptracer26_sd         =   1.3732331671422653E-04
(PID.TID 0000.0001) %MON trcstat_ptracer26_del2       =   0.0000000000000000E+00
(PID.TID 0000.0001) %MON trcstat_ptracer27_max        =   8.9166464105247122E-04
(PID.TID 0000.0001) %MON trcstat_ptracer27_min        =   9.9791666666666689E-21
(PID.TID 0000.0001) %MON trcstat_ptracer27_mean       =   2.6561490082351818E-05
(PID.TID 0000.0001) %MON trcstat_ptracer27_sd         =   1.3935772219713535E-04
(PID.TID 0000.0001) %MON trcstat_ptracer27_del2       =   0.0000000000000000E+00
(PID.TID 0000.0001) %MON trcstat_ptracer28_max        =   8.7419459121992015E-04
(PID.TID 0000.0001) %MON trcstat_ptracer28_min        =   9.9791666666666689E-21
(PID.TID 0000.0001) %MON trcstat_ptracer28_mean       =   2.6066315326732218E-05
(PID.TID 0000.0001) %MON trcstat_ptracer28_sd         =   1.3665955859189387E-04
(PID.TID 0000.0001) %MON trcstat_ptracer28_del2       =   0.0000000000000000E+00
(PID.TID 0000.0001) %MON trcstat_ptracer29_max        =   8.7419459121946955E-04
(PID.TID 0000.0001) %MON trcstat_ptracer29_min        =   9.9791666666666689E-21
(PID.TID 0000.0001) %MON trcstat_ptracer29_mean       =   2.6066315326718201E-05
(PID.TID 0000.0001) %MON trcstat_ptracer29_sd         =   1.3665955859182708E-04
(PID.TID 0000.0001) %MON trcstat_ptracer29_del2       =   0.0000000000000000E+00
(PID.TID 0000.0001) %MON trcstat_ptracer30_max        =   8.7415769243273233E-04
(PID.TID 0000.0001) %MON trcstat_ptracer30_min        =   9.9793750000834328E-21
(PID.TID 0000.0001) %MON trcstat_ptracer30_mean       =   2.6066347814232562E-05
(PID.TID 0000.0001) %MON trcstat_ptracer30_sd         =   1.3662472005559909E-04
(PID.TID 0000.0001) %MON trcstat_ptracer30_del2       =   0.0000000000000000E+00
(PID.TID 0000.0001) %MON trcstat_ptracer31_max        =   8.7419459121952008E-04
(PID.TID 0000.0001) %MON trcstat_ptracer31_min        =   9.9791666666666689E-21
(PID.TID 0000.0001) %MON trcstat_ptracer31_mean       =   2.6066315326720651E-05
(PID.TID 0000.0001) %MON trcstat_ptracer31_sd         =   1.3665955859183749E-04
(PID.TID 0000.0001) %MON trcstat_ptracer31_del2       =   0.0000000000000000E+00
(PID.TID 0000.0001) %MON trcstat_ptracer32_max        =   8.9430014303360471E-04
(PID.TID 0000.0001) %MON trcstat_ptracer32_min        =   9.9791666666666689E-21
(PID.TID 0000.0001) %MON trcstat_ptracer32_mean       =   2.6639222717227707E-05
(PID.TID 0000.0001) %MON trcstat_ptracer32_sd         =   1.3976672893410344E-04
(PID.TID 0000.0001) %MON trcstat_ptracer32_del2       =   0.0000000000000000E+00
(PID.TID 0000.0001) %MON trcstat_ptracer33_max        =   8.7415769256841069E-04
(PID.TID 0000.0001) %MON trcstat_ptracer33_min        =   9.9793750000834328E-21
(PID.TID 0000.0001) %MON trcstat_ptracer33_mean       =   2.6066817546529614E-05
(PID.TID 0000.0001) %MON trcstat_ptracer33_sd         =   1.3662464934040860E-04
(PID.TID 0000.0001) %MON trcstat_ptracer33_del2       =   0.0000000000000000E+00
(PID.TID 0000.0001) %MON trcstat_ptracer34_max        =   8.7415769256841015E-04
(PID.TID 0000.0001) %MON trcstat_ptracer34_min        =   9.9793750000834328E-21
(PID.TID 0000.0001) %MON trcstat_ptracer34_mean       =   2.6066315330521925E-05
(PID.TID 0000.0001) %MON trcstat_ptracer34_sd         =   1.3662472610151351E-04
(PID.TID 0000.0001) %MON trcstat_ptracer34_del2       =   0.0000000000000000E+00
(PID.TID 0000.0001) %MON trcstat_ptracer35_max        =   8.7419459121995983E-04
(PID.TID 0000.0001) %MON trcstat_ptracer35_min        =   9.9791666666666689E-21
(PID.TID 0000.0001) %MON trcstat_ptracer35_mean       =   2.6066315326733370E-05
(PID.TID 0000.0001) %MON trcstat_ptracer35_sd         =   1.3665955859190005E-04
(PID.TID 0000.0001) %MON trcstat_ptracer35_del2       =   0.0000000000000000E+00
(PID.TID 0000.0001) %MON trcstat_ptracer36_max        =   8.8259467758781008E-04
(PID.TID 0000.0001) %MON trcstat_ptracer36_min        =   9.9793750000834328E-21
(PID.TID 0000.0001) %MON trcstat_ptracer36_mean       =   2.6338148973403106E-05
(PID.TID 0000.0001) %MON trcstat_ptracer36_sd         =   1.3793871498366466E-04
(PID.TID 0000.0001) %MON trcstat_ptracer36_del2       =   0.0000000000000000E+00
(PID.TID 0000.0001) %MON trcstat_ptracer37_max        =   8.7415769243281505E-04
(PID.TID 0000.0001) %MON trcstat_ptracer37_min        =   9.9793750000834328E-21
(PID.TID 0000.0001) %MON trcstat_ptracer37_mean       =   2.6066315351266046E-05
(PID.TID 0000.0001) %MON trcstat_ptracer37_sd         =   1.3662472607643317E-04
(PID.TID 0000.0001) %MON trcstat_ptracer37_del2       =   0.0000000000000000E+00
(PID.TID 0000.0001) %MON trcstat_ptracer38_max        =   8.7704715513602831E-04
(PID.TID 0000.0001) %MON trcstat_ptracer38_min        =   9.9793750000834328E-21
(PID.TID 0000.0001) %MON trcstat_ptracer38_mean       =   2.6216301671350089E-05
(PID.TID 0000.0001) %MON trcstat_ptracer38_sd         =   1.3722635355477831E-04
(PID.TID 0000.0001) %MON trcstat_ptracer38_del2       =   0.0000000000000000E+00
(PID.TID 0000.0001) %MON trcstat_ptracer39_max        =   8.9418763541612234E-04
(PID.TID 0000.0001) %MON trcstat_ptracer39_min        =   9.9793750000834328E-21
(PID.TID 0000.0001) %MON trcstat_ptracer39_mean       =   2.6663581788068685E-05
(PID.TID 0000.0001) %MON trcstat_ptracer39_sd         =   1.3978131942011520E-04
(PID.TID 0000.0001) %MON trcstat_ptracer39_del2       =   0.0000000000000000E+00
(PID.TID 0000.0001) %MON trcstat_ptracer40_max        =   8.7419459121961744E-04
(PID.TID 0000.0001) %MON trcstat_ptracer40_min        =   9.9791666666666689E-21
(PID.TID 0000.0001) %MON trcstat_ptracer40_mean       =   2.6066316220396115E-05
(PID.TID 0000.0001) %MON trcstat_ptracer40_sd         =   1.3665955845694323E-04
(PID.TID 0000.0001) %MON trcstat_ptracer40_del2       =   0.0000000000000000E+00
(PID.TID 0000.0001) %MON trcstat_ptracer41_max        =   8.7415769243264537E-04
(PID.TID 0000.0001) %MON trcstat_ptracer41_min        =   9.9793750000834328E-21
(PID.TID 0000.0001) %MON trcstat_ptracer41_mean       =   2.6066315326727936E-05
(PID.TID 0000.0001) %MON trcstat_ptracer41_sd         =   1.3662472608108703E-04
(PID.TID 0000.0001) %MON trcstat_ptracer41_del2       =   0.0000000000000000E+00
(PID.TID 0000.0001) %MON trcstat_ptracer42_max        =   8.7419459121949286E-04
(PID.TID 0000.0001) %MON trcstat_ptracer42_min        =   9.9791666666666689E-21
(PID.TID 0000.0001) %MON trcstat_ptracer42_mean       =   2.6066315843526941E-05
(PID.TID 0000.0001) %MON trcstat_ptracer42_sd         =   1.3665955851132876E-04
(PID.TID 0000.0001) %MON trcstat_ptracer42_del2       =   0.0000000000000000E+00
(PID.TID 0000.0001) %MON trcstat_ptracer43_max        =   8.7419459121945405E-04
(PID.TID 0000.0001) %MON trcstat_ptracer43_min        =   9.9791666666666689E-21
(PID.TID 0000.0001) %MON trcstat_ptracer43_mean       =   2.6066315326717751E-05
(PID.TID 0000.0001) %MON trcstat_ptracer43_sd         =   1.3665955859182459E-04
(PID.TID 0000.0001) %MON trcstat_ptracer43_del2       =   0.0000000000000000E+00
(PID.TID 0000.0001) %MON trcstat_ptracer44_max        =   8.7419459121951639E-04
(PID.TID 0000.0001) %MON trcstat_ptracer44_min        =   9.9791666666666689E-21
(PID.TID 0000.0001) %MON trcstat_ptracer44_mean       =   2.6066315326720522E-05
(PID.TID 0000.0001) %MON trcstat_ptracer44_sd         =   1.3665955859183687E-04
(PID.TID 0000.0001) %MON trcstat_ptracer44_del2       =   0.0000000000000000E+00
(PID.TID 0000.0001) %MON trcstat_ptracer45_max        =   8.7419459121951357E-04
(PID.TID 0000.0001) %MON trcstat_ptracer45_min        =   9.9791666666666689E-21
(PID.TID 0000.0001) %MON trcstat_ptracer45_mean       =   2.6066315326720441E-05
(PID.TID 0000.0001) %MON trcstat_ptracer45_sd         =   1.3665955859183641E-04
(PID.TID 0000.0001) %MON trcstat_ptracer45_del2       =   0.0000000000000000E+00
(PID.TID 0000.0001) %MON trcstat_ptracer46_max        =   8.9295258192884769E-04
(PID.TID 0000.0001) %MON trcstat_ptracer46_min        =   9.9793750000834328E-21
(PID.TID 0000.0001) %MON trcstat_ptracer46_mean       =   2.6612482850415543E-05
(PID.TID 0000.0001) %MON trcstat_ptracer46_sd         =   1.3955270681341965E-04
(PID.TID 0000.0001) %MON trcstat_ptracer46_del2       =   0.0000000000000000E+00
(PID.TID 0000.0001) %MON trcstat_ptracer47_max        =   8.7419459122005069E-04
(PID.TID 0000.0001) %MON trcstat_ptracer47_min        =   9.9791666666666689E-21
(PID.TID 0000.0001) %MON trcstat_ptracer47_mean       =   2.6066315326736033E-05
(PID.TID 0000.0001) %MON trcstat_ptracer47_sd         =   1.3665955859191425E-04
(PID.TID 0000.0001) %MON trcstat_ptracer47_del2       =   0.0000000000000000E+00
(PID.TID 0000.0001) %MON trcstat_ptracer48_max        =   8.9352318082495431E-04
(PID.TID 0000.0001) %MON trcstat_ptracer48_min        =   9.9793750000834328E-21
(PID.TID 0000.0001) %MON trcstat_ptracer48_mean       =   2.6601792364508667E-05
(PID.TID 0000.0001) %MON trcstat_ptracer48_sd         =   1.3958984960277444E-04
(PID.TID 0000.0001) %MON trcstat_ptracer48_del2       =   0.0000000000000000E+00
(PID.TID 0000.0001) %MON trcstat_ptracer49_max        =   8.9391222936211650E-04
(PID.TID 0000.0001) %MON trcstat_ptracer49_min        =   9.9791666666666689E-21
(PID.TID 0000.0001) %MON trcstat_ptracer49_mean       =   2.6629325146197102E-05
(PID.TID 0000.0001) %MON trcstat_ptracer49_sd         =   1.3966783369156059E-04
(PID.TID 0000.0001) %MON trcstat_ptracer49_del2       =   0.0000000000000000E+00
(PID.TID 0000.0001) %MON trcstat_ptracer50_max        =   8.8457538845678916E-04
(PID.TID 0000.0001) %MON trcstat_ptracer50_min        =   9.9793750000834328E-21
(PID.TID 0000.0001) %MON trcstat_ptracer50_mean       =   2.6385970605004723E-05
(PID.TID 0000.0001) %MON trcstat_ptracer50_sd         =   1.3820747501225102E-04
(PID.TID 0000.0001) %MON trcstat_ptracer50_del2       =   0.0000000000000000E+00
(PID.TID 0000.0001) %MON trcstat_ptracer51_max        =   8.8781026243875026E-04
(PID.TID 0000.0001) %MON trcstat_ptracer51_min        =   9.9791666666666689E-21
(PID.TID 0000.0001) %MON trcstat_ptracer51_mean       =   2.6419934131050268E-05
(PID.TID 0000.0001) %MON trcstat_ptracer51_sd         =   1.3867465778572694E-04
(PID.TID 0000.0001) %MON trcstat_ptracer51_del2       =   0.0000000000000000E+00
(PID.TID 0000.0001) %MON trcstat_ptracer52_max        =   8.7419459121976283E-04
(PID.TID 0000.0001) %MON trcstat_ptracer52_min        =   9.9791666666666689E-21
(PID.TID 0000.0001) %MON trcstat_ptracer52_mean       =   2.6066315326727600E-05
(PID.TID 0000.0001) %MON trcstat_ptracer52_sd         =   1.3665955859186940E-04
(PID.TID 0000.0001) %MON trcstat_ptracer52_del2       =   0.0000000000000000E+00
(PID.TID 0000.0001) %MON trcstat_ptracer53_max        =   8.7415769256816555E-04
(PID.TID 0000.0001) %MON trcstat_ptracer53_min        =   9.9793750000834328E-21
(PID.TID 0000.0001) %MON trcstat_ptracer53_mean       =   2.6066315330514722E-05
(PID.TID 0000.0001) %MON trcstat_ptracer53_sd         =   1.3662472610147543E-04
(PID.TID 0000.0001) %MON trcstat_ptracer53_del2       =   0.0000000000000000E+00
(PID.TID 0000.0001) %MON trcstat_ptracer54_max        =   8.7419459121969984E-04
(PID.TID 0000.0001) %MON trcstat_ptracer54_min        =   9.9791666666666689E-21
(PID.TID 0000.0001) %MON trcstat_ptracer54_mean       =   2.6066315326725754E-05
(PID.TID 0000.0001) %MON trcstat_ptracer54_sd         =   1.3665955859185956E-04
(PID.TID 0000.0001) %MON trcstat_ptracer54_del2       =   0.0000000000000000E+00
(PID.TID 0000.0001) %MON trcstat_ptracer55_max        =   8.7419459122007204E-04
(PID.TID 0000.0001) %MON trcstat_ptracer55_min        =   9.9791666666666689E-21
(PID.TID 0000.0001) %MON trcstat_ptracer55_mean       =   2.6066315326736657E-05
(PID.TID 0000.0001) %MON trcstat_ptracer55_sd         =   1.3665955859191761E-04
(PID.TID 0000.0001) %MON trcstat_ptracer55_del2       =   0.0000000000000000E+00
(PID.TID 0000.0001) %MON trcstat_ptracer56_max        =   8.7419459121986605E-04
(PID.TID 0000.0001) %MON trcstat_ptracer56_min        =   9.9791666666666689E-21
(PID.TID 0000.0001) %MON trcstat_ptracer56_mean       =   2.6066315326730626E-05
(PID.TID 0000.0001) %MON trcstat_ptracer56_sd         =   1.3665955859188547E-04
(PID.TID 0000.0001) %MON trcstat_ptracer56_del2       =   0.0000000000000000E+00
(PID.TID 0000.0001) %MON trcstat_ptracer57_max        =   8.7415769256841264E-04
(PID.TID 0000.0001) %MON trcstat_ptracer57_min        =   9.9793750000834328E-21
(PID.TID 0000.0001) %MON trcstat_ptracer57_mean       =   2.6066805969068202E-05
(PID.TID 0000.0001) %MON trcstat_ptracer57_sd         =   1.3662465106087311E-04
(PID.TID 0000.0001) %MON trcstat_ptracer57_del2       =   0.0000000000000000E+00
(PID.TID 0000.0001) %MON trcstat_ptracer58_max        =   8.7419459121963142E-04
(PID.TID 0000.0001) %MON trcstat_ptracer58_min        =   9.9791666666666689E-21
(PID.TID 0000.0001) %MON trcstat_ptracer58_mean       =   2.6067099702750433E-05
(PID.TID 0000.0001) %MON trcstat_ptracer58_sd         =   1.3665944816104194E-04
(PID.TID 0000.0001) %MON trcstat_ptracer58_del2       =   0.0000000000000000E+00
(PID.TID 0000.0001) %MON trcstat_ptracer59_max        =   8.7415769243277971E-04
(PID.TID 0000.0001) %MON trcstat_ptracer59_min        =   9.9793750000834328E-21
(PID.TID 0000.0001) %MON trcstat_ptracer59_mean       =   2.6067318936214190E-05
(PID.TID 0000.0001) %MON trcstat_ptracer59_sd         =   1.3662457996923617E-04
(PID.TID 0000.0001) %MON trcstat_ptracer59_del2       =   0.0000000000000000E+00
(PID.TID 0000.0001) %MON trcstat_ptracer60_max        =   8.7419459122006760E-04
(PID.TID 0000.0001) %MON trcstat_ptracer60_min        =   9.9791666666666689E-21
(PID.TID 0000.0001) %MON trcstat_ptracer60_mean       =   2.6085206632303317E-05
(PID.TID 0000.0001) %MON trcstat_ptracer60_sd         =   1.3667395005423314E-04
(PID.TID 0000.0001) %MON trcstat_ptracer60_del2       =   0.0000000000000000E+00
(PID.TID 0000.0001) %MON trcstat_ptracer61_max        =   8.7415769243265318E-04
(PID.TID 0000.0001) %MON trcstat_ptracer61_min        =   9.9793750000834328E-21
(PID.TID 0000.0001) %MON trcstat_ptracer61_mean       =   2.6066315340022253E-05
(PID.TID 0000.0001) %MON trcstat_ptracer61_sd         =   1.3662472607855203E-04
(PID.TID 0000.0001) %MON trcstat_ptracer61_del2       =   0.0000000000000000E+00
(PID.TID 0000.0001) %MON trcstat_ptracer62_max        =   8.8213481644412587E-04
(PID.TID 0000.0001) %MON trcstat_ptracer62_min        =   9.9791666666666689E-21
(PID.TID 0000.0001) %MON trcstat_ptracer62_mean       =   2.6252377908987177E-05
(PID.TID 0000.0001) %MON trcstat_ptracer62_sd         =   1.3777663093803935E-04
(PID.TID 0000.0001) %MON trcstat_ptracer62_del2       =   0.0000000000000000E+00
(PID.TID 0000.0001) %MON trcstat_ptracer63_max        =   8.9374788311647857E-04
(PID.TID 0000.0001) %MON trcstat_ptracer63_min        =   9.9793750000834328E-21
(PID.TID 0000.0001) %MON trcstat_ptracer63_mean       =   2.6628142631379042E-05
(PID.TID 0000.0001) %MON trcstat_ptracer63_sd         =   1.3968266881687986E-04
(PID.TID 0000.0001) %MON trcstat_ptracer63_del2       =   0.0000000000000000E+00
(PID.TID 0000.0001) %MON trcstat_ptracer64_max        =   8.7415769243285864E-04
(PID.TID 0000.0001) %MON trcstat_ptracer64_min        =   9.9793750000834328E-21
(PID.TID 0000.0001) %MON trcstat_ptracer64_mean       =   2.6066315326734278E-05
(PID.TID 0000.0001) %MON trcstat_ptracer64_sd         =   1.3662472608112023E-04
(PID.TID 0000.0001) %MON trcstat_ptracer64_del2       =   0.0000000000000000E+00
(PID.TID 0000.0001) %MON trcstat_ptracer65_max        =   8.7415769243282232E-04
(PID.TID 0000.0001) %MON trcstat_ptracer65_min        =   9.9793750000834328E-21
(PID.TID 0000.0001) %MON trcstat_ptracer65_mean       =   2.6066588301829626E-05
(PID.TID 0000.0001) %MON trcstat_ptracer65_sd         =   1.3662468162503309E-04
(PID.TID 0000.0001) %MON trcstat_ptracer65_del2       =   0.0000000000000000E+00
(PID.TID 0000.0001) %MON trcstat_ptracer66_max        =   8.7415769243275921E-04
(PID.TID 0000.0001) %MON trcstat_ptracer66_min        =   9.9793750000834328E-21
(PID.TID 0000.0001) %MON trcstat_ptracer66_mean       =   2.6066315326731334E-05
(PID.TID 0000.0001) %MON trcstat_ptracer66_sd         =   1.3662472608110473E-04
(PID.TID 0000.0001) %MON trcstat_ptracer66_del2       =   0.0000000000000000E+00
(PID.TID 0000.0001) %MON trcstat_ptracer67_max        =   8.8577243227787122E-04
(PID.TID 0000.0001) %MON trcstat_ptracer67_min        =   9.9791666666666689E-21
(PID.TID 0000.0001) %MON trcstat_ptracer67_mean       =   2.6425375055558376E-05
(PID.TID 0000.0001) %MON trcstat_ptracer67_sd         =   1.3849099154156040E-04
(PID.TID 0000.0001) %MON trcstat_ptracer67_del2       =   0.0000000000000000E+00
(PID.TID 0000.0001) %MON trcstat_ptracer68_max        =   8.7419459122013851E-04
(PID.TID 0000.0001) %MON trcstat_ptracer68_min        =   9.9791666666666689E-21
(PID.TID 0000.0001) %MON trcstat_ptracer68_mean       =   2.6066315326738588E-05
(PID.TID 0000.0001) %MON trcstat_ptracer68_sd         =   1.3665955859192791E-04
(PID.TID 0000.0001) %MON trcstat_ptracer68_del2       =   0.0000000000000000E+00
(PID.TID 0000.0001) %MON trcstat_ptracer69_max        =   8.7415769256839150E-04
(PID.TID 0000.0001) %MON trcstat_ptracer69_min        =   9.9793750000834328E-21
(PID.TID 0000.0001) %MON trcstat_ptracer69_mean       =   2.6066456082119619E-05
(PID.TID 0000.0001) %MON trcstat_ptracer69_sd         =   1.3662470278677803E-04
(PID.TID 0000.0001) %MON trcstat_ptracer69_del2       =   0.0000000000000000E+00
(PID.TID 0000.0001) %MON trcstat_ptracer70_max        =   8.7415769256828644E-04
(PID.TID 0000.0001) %MON trcstat_ptracer70_min        =   9.9793750000834328E-21
(PID.TID 0000.0001) %MON trcstat_ptracer70_mean       =   2.6067474026375599E-05
(PID.TID 0000.0001) %MON trcstat_ptracer70_sd         =   1.3662456099690348E-04
(PID.TID 0000.0001) %MON trcstat_ptracer70_del2       =   0.0000000000000000E+00
(PID.TID 0000.0001) %MON trcstat_ptracer71_max        =   8.7415769243265210E-04
(PID.TID 0000.0001) %MON trcstat_ptracer71_min        =   9.9793750000834328E-21
(PID.TID 0000.0001) %MON trcstat_ptracer71_mean       =   2.6066315326728139E-05
(PID.TID 0000.0001) %MON trcstat_ptracer71_sd         =   1.3662472608108806E-04
(PID.TID 0000.0001) %MON trcstat_ptracer71_del2       =   0.0000000000000000E+00
(PID.TID 0000.0001) %MON trcstat_ptracer72_max        =   8.9422806676469724E-04
(PID.TID 0000.0001) %MON trcstat_ptracer72_min        =   9.9793750000834328E-21
(PID.TID 0000.0001) %MON trcstat_ptracer72_mean       =   2.6664741349410226E-05
(PID.TID 0000.0001) %MON trcstat_ptracer72_sd         =   1.3979408103265801E-04
(PID.TID 0000.0001) %MON trcstat_ptracer72_del2       =   0.0000000000000000E+00
(PID.TID 0000.0001) %MON trcstat_ptracer73_max        =   8.7415769256839410E-04
(PID.TID 0000.0001) %MON trcstat_ptracer73_min        =   9.9793750000834328E-21
(PID.TID 0000.0001) %MON trcstat_ptracer73_mean       =   2.6066315330521457E-05
(PID.TID 0000.0001) %MON trcstat_ptracer73_sd         =   1.3662472610151104E-04
(PID.TID 0000.0001) %MON trcstat_ptracer73_del2       =   0.0000000000000000E+00
(PID.TID 0000.0001) %MON trcstat_ptracer74_max        =   8.9366522118998677E-04
(PID.TID 0000.0001) %MON trcstat_ptracer74_min        =   9.9793750000834328E-21
(PID.TID 0000.0001) %MON trcstat_ptracer74_mean       =   2.6585989214984093E-05
(PID.TID 0000.0001) %MON trcstat_ptracer74_sd         =   1.3956126567070182E-04
(PID.TID 0000.0001) %MON trcstat_ptracer74_del2       =   0.0000000000000000E+00
(PID.TID 0000.0001) %MON trcstat_ptracer75_max        =   8.8156624777051566E-04
(PID.TID 0000.0001) %MON trcstat_ptracer75_min        =   9.9793750000834328E-21
(PID.TID 0000.0001) %MON trcstat_ptracer75_mean       =   2.6331546402506773E-05
(PID.TID 0000.0001) %MON trcstat_ptracer75_sd         =   1.3784887769587671E-04
(PID.TID 0000.0001) %MON trcstat_ptracer75_del2       =   0.0000000000000000E+00
(PID.TID 0000.0001) %MON trcstat_ptracer76_max        =   8.7415769243293952E-04
(PID.TID 0000.0001) %MON trcstat_ptracer76_min        =   9.9793750000834328E-21
(PID.TID 0000.0001) %MON trcstat_ptracer76_mean       =   2.6083911851620020E-05
(PID.TID 0000.0001) %MON trcstat_ptracer76_sd         =   1.3663340516973312E-04
(PID.TID 0000.0001) %MON trcstat_ptracer76_del2       =   0.0000000000000000E+00
(PID.TID 0000.0001) %MON trcstat_ptracer77_max        =   8.7755275689538944E-04
(PID.TID 0000.0001) %MON trcstat_ptracer77_min        =   9.9793750000834328E-21
(PID.TID 0000.0001) %MON trcstat_ptracer77_mean       =   2.6220343344466342E-05
(PID.TID 0000.0001) %MON trcstat_ptracer77_sd         =   1.3727263690012625E-04
(PID.TID 0000.0001) %MON trcstat_ptracer77_del2       =   0.0000000000000000E+00
(PID.TID 0000.0001) %MON trcstat_ptracer78_max        =   8.7415769243279489E-04
(PID.TID 0000.0001) %MON trcstat_ptracer78_min        =   9.9793750000834328E-21
(PID.TID 0000.0001) %MON trcstat_ptracer78_mean       =   2.6066315326732391E-05
(PID.TID 0000.0001) %MON trcstat_ptracer78_sd         =   1.3662472608111029E-04
(PID.TID 0000.0001) %MON trcstat_ptracer78_del2       =   0.0000000000000000E+00
(PID.TID 0000.0001) %MON trcstat_ptracer79_max        =   8.7415769243263258E-04
(PID.TID 0000.0001) %MON trcstat_ptracer79_min        =   9.9793750000834328E-21
(PID.TID 0000.0001) %MON trcstat_ptracer79_mean       =   2.6066614894349526E-05
(PID.TID 0000.0001) %MON trcstat_ptracer79_sd         =   1.3662467740526986E-04
(PID.TID 0000.0001) %MON trcstat_ptracer79_del2       =   0.0000000000000000E+00
(PID.TID 0000.0001) %MON trcstat_ptracer80_max        =   8.8668413672651737E-04
(PID.TID 0000.0001) %MON trcstat_ptracer80_min        =   9.9793750000834328E-21
(PID.TID 0000.0001) %MON trcstat_ptracer80_mean       =   2.6434469005890329E-05
(PID.TID 0000.0001) %MON trcstat_ptracer80_sd         =   1.3849766854301336E-04
(PID.TID 0000.0001) %MON trcstat_ptracer80_del2       =   0.0000000000000000E+00
(PID.TID 0000.0001) %MON trcstat_ptracer81_max        =   8.7419459121961473E-04
(PID.TID 0000.0001) %MON trcstat_ptracer81_min        =   9.9791666666666689E-21
(PID.TID 0000.0001) %MON trcstat_ptracer81_mean       =   2.6066315326723243E-05
(PID.TID 0000.0001) %MON trcstat_ptracer81_sd         =   1.3665955859184633E-04
(PID.TID 0000.0001) %MON trcstat_ptracer81_del2       =   0.0000000000000000E+00
(PID.TID 0000.0001) %MON trcstat_ptracer82_max        =   8.7415769256818029E-04
(PID.TID 0000.0001) %MON trcstat_ptracer82_min        =   9.9793750000834328E-21
(PID.TID 0000.0001) %MON trcstat_ptracer82_mean       =   2.6081514580328899E-05
(PID.TID 0000.0001) %MON trcstat_ptracer82_sd         =   1.3663044697390884E-04
(PID.TID 0000.0001) %MON trcstat_ptracer82_del2       =   0.0000000000000000E+00
(PID.TID 0000.0001) %MON trcstat_ptracer83_max        =   8.7419459121949048E-04
(PID.TID 0000.0001) %MON trcstat_ptracer83_min        =   9.9791666666666689E-21
(PID.TID 0000.0001) %MON trcstat_ptracer83_mean       =   2.6066315326718805E-05
(PID.TID 0000.0001) %MON trcstat_ptracer83_sd         =   1.3665955859183045E-04
(PID.TID 0000.0001) %MON trcstat_ptracer83_del2       =   0.0000000000000000E+00
(PID.TID 0000.0001) %MON trcstat_ptracer84_max        =   8.7415769243275444E-04
(PID.TID 0000.0001) %MON trcstat_ptracer84_min        =   9.9793750000834328E-21
(PID.TID 0000.0001) %MON trcstat_ptracer84_mean       =   2.6066315326731188E-05
(PID.TID 0000.0001) %MON trcstat_ptracer84_sd         =   1.3662472608110397E-04
(PID.TID 0000.0001) %MON trcstat_ptracer84_del2       =   0.0000000000000000E+00
(PID.TID 0000.0001) %MON trcstat_ptracer85_max        =   8.7948339011069572E-04
(PID.TID 0000.0001) %MON trcstat_ptracer85_min        =   9.9793750000834328E-21
(PID.TID 0000.0001) %MON trcstat_ptracer85_mean       =   2.6285893454335543E-05
(PID.TID 0000.0001) %MON trcstat_ptracer85_sd         =   1.3758437806232656E-04
(PID.TID 0000.0001) %MON trcstat_ptracer85_del2       =   0.0000000000000000E+00
(PID.TID 0000.0001) %MON trcstat_ptracer86_max        =   8.8911433568457572E-04
(PID.TID 0000.0001) %MON trcstat_ptracer86_min        =   9.9791666666666689E-21
(PID.TID 0000.0001) %MON trcstat_ptracer86_mean       =   2.6500941043008089E-05
(PID.TID 0000.0001) %MON trcstat_ptracer86_sd         =   1.3900585534670206E-04
(PID.TID 0000.0001) %MON trcstat_ptracer86_del2       =   0.0000000000000000E+00
(PID.TID 0000.0001) %MON trcstat_ptracer87_max        =   8.7419459121961494E-04
(PID.TID 0000.0001) %MON trcstat_ptracer87_min        =   9.9791666666666689E-21
(PID.TID 0000.0001) %MON trcstat_ptracer87_mean       =   2.6066315326723572E-05
(PID.TID 0000.0001) %MON trcstat_ptracer87_sd         =   1.3665955859185316E-04
(PID.TID 0000.0001) %MON trcstat_ptracer87_del2       =   0.0000000000000000E+00
(PID.TID 0000.0001) %MON trcstat_ptracer88_max        =   8.7419459121953862E-04
(PID.TID 0000.0001) %MON trcstat_ptracer88_min        =   9.9791666666666689E-21
(PID.TID 0000.0001) %MON trcstat_ptracer88_mean       =   2.6066326835811329E-05
(PID.TID 0000.0001) %MON trcstat_ptracer88_sd         =   1.3665955741579036E-04
(PID.TID 0000.0001) %MON trcstat_ptracer88_del2       =   0.0000000000000000E+00
(PID.TID 0000.0001) %MON trcstat_ptracer89_max        =   8.7415769256839735E-04
(PID.TID 0000.0001) %MON trcstat_ptracer89_min        =   9.9793750000834328E-21
(PID.TID 0000.0001) %MON trcstat_ptracer89_mean       =   2.6066342329345126E-05
(PID.TID 0000.0001) %MON trcstat_ptracer89_sd         =   1.3662472109390780E-04
(PID.TID 0000.0001) %MON trcstat_ptracer89_del2       =   0.0000000000000000E+00
(PID.TID 0000.0001) %MON trcstat_ptracer90_max        =   8.7419459121959272E-04
(PID.TID 0000.0001) %MON trcstat_ptracer90_min        =   9.9791666666666689E-21
(PID.TID 0000.0001) %MON trcstat_ptracer90_mean       =   2.6066315326721745E-05
(PID.TID 0000.0001) %MON trcstat_ptracer90_sd         =   1.3665955859184687E-04
(PID.TID 0000.0001) %MON trcstat_ptracer90_del2       =   0.0000000000000000E+00
(PID.TID 0000.0001) %MON trcstat_ptracer91_max        =   8.7799137544619557E-04
(PID.TID 0000.0001) %MON trcstat_ptracer91_min        =   9.9793750000834328E-21
(PID.TID 0000.0001) %MON trcstat_ptracer91_mean       =   2.6240661308789247E-05
(PID.TID 0000.0001) %MON trcstat_ptracer91_sd         =   1.3735888172972788E-04
(PID.TID 0000.0001) %MON trcstat_ptracer91_del2       =   0.0000000000000000E+00
(PID.TID 0000.0001) %MON trcstat_ptracer92_max        =   8.7415769256818301E-04
(PID.TID 0000.0001) %MON trcstat_ptracer92_min        =   9.9793750000834328E-21
(PID.TID 0000.0001) %MON trcstat_ptracer92_mean       =   2.6066315330515237E-05
(PID.TID 0000.0001) %MON trcstat_ptracer92_sd         =   1.3662472610147814E-04
(PID.TID 0000.0001) %MON trcstat_ptracer92_del2       =   0.0000000000000000E+00
(PID.TID 0000.0001) %MON trcstat_ptracer93_max        =   8.9297505652750507E-04
(PID.TID 0000.0001) %MON trcstat_ptracer93_min        =   9.9793750000834328E-21
(PID.TID 0000.0001) %MON trcstat_ptracer93_mean       =   2.6618258944913965E-05
(PID.TID 0000.0001) %MON trcstat_ptracer93_sd         =   1.3956180568272078E-04
(PID.TID 0000.0001) %MON trcstat_ptracer93_del2       =   0.0000000000000000E+00
(PID.TID 0000.0001) %MON trcstat_ptracer94_max        =   8.7420095159864342E-04
(PID.TID 0000.0001) %MON trcstat_ptracer94_min        =   9.9793750000834328E-21
(PID.TID 0000.0001) %MON trcstat_ptracer94_mean       =   2.6137812513749300E-05
(PID.TID 0000.0001) %MON trcstat_ptracer94_sd         =   1.3684626862510947E-04
(PID.TID 0000.0001) %MON trcstat_ptracer94_del2       =   0.0000000000000000E+00
(PID.TID 0000.0001) %MON trcstat_ptracer95_max        =   8.8600052250288467E-04
(PID.TID 0000.0001) %MON trcstat_ptracer95_min        =   9.9791666666666689E-21
(PID.TID 0000.0001) %MON trcstat_ptracer95_mean       =   2.6390557352377944E-05
(PID.TID 0000.0001) %MON trcstat_ptracer95_sd         =   1.3850044655430816E-04
(PID.TID 0000.0001) %MON trcstat_ptracer95_del2       =   0.0000000000000000E+00
(PID.TID 0000.0001) %MON trcstat_ptracer96_max        =   1.2399033563881482E-07
(PID.TID 0000.0001) %MON trcstat_ptracer96_min        =   1.3829727579957369E-34
(PID.TID 0000.0001) %MON trcstat_ptracer96_mean       =   1.6396963365640002E-08
(PID.TID 0000.0001) %MON trcstat_ptracer96_sd         =   2.9991152483607270E-08
(PID.TID 0000.0001) %MON trcstat_ptracer96_del2       =   0.0000000000000000E+00
(PID.TID 0000.0001) %MON trcstat_ptracer97_max        =   1.2399172384351513E-07
(PID.TID 0000.0001) %MON trcstat_ptracer97_min        =   1.3829727579958637E-34
(PID.TID 0000.0001) %MON trcstat_ptracer97_mean       =   1.6397002817112413E-08
(PID.TID 0000.0001) %MON trcstat_ptracer97_sd         =   2.9991284750610421E-08
(PID.TID 0000.0001) %MON trcstat_ptracer97_del2       =   0.0000000000000000E+00
(PID.TID 0000.0001) // =======================================================
(PID.TID 0000.0001) // End MONITOR ptracers field statistics
(PID.TID 0000.0001) // =======================================================
 Computing Diagnostic #    140  TRAC01       Counter:       1   Parms: SMR     MR      
 Computing Diagnostic #    152  TRAC02       Counter:       1   Parms: SMR     MR      
 Computing Diagnostic #    164  TRAC03       Counter:       1   Parms: SMR     MR      
 Computing Diagnostic #    176  TRAC04       Counter:       1   Parms: SMR     MR      
 Computing Diagnostic #    188  TRAC05       Counter:       1   Parms: SMR     MR      
 Computing Diagnostic #    200  TRAC06       Counter:       1   Parms: SMR     MR      
 Computing Diagnostic #    212  TRAC07       Counter:       1   Parms: SMR     MR      
 Computing Diagnostic #    224  TRAC08       Counter:       1   Parms: SMR     MR      
 Computing Diagnostic #    236  TRAC09       Counter:       1   Parms: SMR     MR      
 Computing Diagnostic #    248  TRAC10       Counter:       1   Parms: SMR     MR      
 Computing Diagnostic #    260  TRAC11       Counter:       1   Parms: SMR     MR      
 Computing Diagnostic #    272  TRAC12       Counter:       1   Parms: SMR     MR      
 Computing Diagnostic #    284  TRAC13       Counter:       1   Parms: SMR     MR      
 Computing Diagnostic #    296  TRAC14       Counter:       1   Parms: SMR     MR      
 Computing Diagnostic #    308  TRAC15       Counter:       1   Parms: SMR     MR      
 Computing Diagnostic #    320  TRAC16       Counter:       1   Parms: SMR     MR      
 Computing Diagnostic #    332  TRAC17       Counter:       1   Parms: SMR     MR      
 Computing Diagnostic #    344  TRAC18       Counter:       1   Parms: SMR     MR      
 Computing Diagnostic #    356  TRAC19       Counter:       1   Parms: SMR     MR      
 Computing Diagnostic #    368  TRAC20       Counter:       1   Parms: SMR     MR      
 Computing Diagnostic #    380  TRAC21       Counter:       1   Parms: SMR     MR      
 Computing Diagnostic #    392  TRAC22       Counter:       1   Parms: SMR     MR      
 Computing Diagnostic #    404  TRAC23       Counter:       1   Parms: SMR     MR      
 Computing Diagnostic #    416  TRAC24       Counter:       1   Parms: SMR     MR      
 Computing Diagnostic #    428  TRAC25       Counter:       1   Parms: SMR     MR      
 Computing Diagnostic #    440  TRAC26       Counter:       1   Parms: SMR     MR      
 Computing Diagnostic #    452  TRAC27       Counter:       1   Parms: SMR     MR      
 Computing Diagnostic #    464  TRAC28       Counter:       1   Parms: SMR     MR      
 Computing Diagnostic #    476  TRAC29       Counter:       1   Parms: SMR     MR      
 Computing Diagnostic #    488  TRAC30       Counter:       1   Parms: SMR     MR      
 Computing Diagnostic #    500  TRAC31       Counter:       1   Parms: SMR     MR      
 Computing Diagnostic #    512  TRAC32       Counter:       1   Parms: SMR     MR      
 Computing Diagnostic #    524  TRAC33       Counter:       1   Parms: SMR     MR      
 Computing Diagnostic #    536  TRAC34       Counter:       1   Parms: SMR     MR      
 Computing Diagnostic #    548  TRAC35       Counter:       1   Parms: SMR     MR      
 Computing Diagnostic #    560  TRAC36       Counter:       1   Parms: SMR     MR      
 Computing Diagnostic #    572  TRAC37       Counter:       1   Parms: SMR     MR      
 Computing Diagnostic #    584  TRAC38       Counter:       1   Parms: SMR     MR      
 Computing Diagnostic #    596  TRAC39       Counter:       1   Parms: SMR     MR      
 Computing Diagnostic #    608  TRAC40       Counter:       1   Parms: SMR     MR      
 Computing Diagnostic #    620  TRAC41       Counter:       1   Parms: SMR     MR      
 Computing Diagnostic #    632  TRAC42       Counter:       1   Parms: SMR     MR      
 Computing Diagnostic #    644  TRAC43       Counter:       1   Parms: SMR     MR      
 Computing Diagnostic #    656  TRAC44       Counter:       1   Parms: SMR     MR      
 Computing Diagnostic #    668  TRAC45       Counter:       1   Parms: SMR     MR      
 Computing Diagnostic #    680  TRAC46       Counter:       1   Parms: SMR     MR      
 Computing Diagnostic #    692  TRAC47       Counter:       1   Parms: SMR     MR      
 Computing Diagnostic #    704  TRAC48       Counter:       1   Parms: SMR     MR      
 Computing Diagnostic #    716  TRAC49       Counter:       1   Parms: SMR     MR      
 Computing Diagnostic #    728  TRAC50       Counter:       1   Parms: SMR     MR      
 Computing Diagnostic #    740  TRAC51       Counter:       1   Parms: SMR     MR      
 Computing Diagnostic #    752  TRAC52       Counter:       1   Parms: SMR     MR      
 Computing Diagnostic #    764  TRAC53       Counter:       1   Parms: SMR     MR      
 Computing Diagnostic #    776  TRAC54       Counter:       1   Parms: SMR     MR      
 Computing Diagnostic #    788  TRAC55       Counter:       1   Parms: SMR     MR      
 Computing Diagnostic #    800  TRAC56       Counter:       1   Parms: SMR     MR      
 Computing Diagnostic #    812  TRAC57       Counter:       1   Parms: SMR     MR      
 Computing Diagnostic #    824  TRAC58       Counter:       1   Parms: SMR     MR      
 Computing Diagnostic #    836  TRAC59       Counter:       1   Parms: SMR     MR      
 Computing Diagnostic #    848  TRAC60       Counter:       1   Parms: SMR     MR      
 Computing Diagnostic #    860  TRAC61       Counter:       1   Parms: SMR     MR      
 Computing Diagnostic #    872  TRAC62       Counter:       1   Parms: SMR     MR      
 Computing Diagnostic #    884  TRAC63       Counter:       1   Parms: SMR     MR      
 Computing Diagnostic #    896  TRAC64       Counter:       1   Parms: SMR     MR      
 Computing Diagnostic #    908  TRAC65       Counter:       1   Parms: SMR     MR      
 Computing Diagnostic #    920  TRAC66       Counter:       1   Parms: SMR     MR      
 Computing Diagnostic #    932  TRAC67       Counter:       1   Parms: SMR     MR      
 Computing Diagnostic #    944  TRAC68       Counter:       1   Parms: SMR     MR      
 Computing Diagnostic #    956  TRAC69       Counter:       1   Parms: SMR     MR      
 Computing Diagnostic #    968  TRAC70       Counter:       1   Parms: SMR     MR      
 Computing Diagnostic #    980  TRAC71       Counter:       1   Parms: SMR     MR      
 Computing Diagnostic #    992  TRAC72       Counter:       1   Parms: SMR     MR      
 Computing Diagnostic #   1004  TRAC73       Counter:       1   Parms: SMR     MR      
 Computing Diagnostic #   1016  TRAC74       Counter:       1   Parms: SMR     MR      
 Computing Diagnostic #   1028  TRAC75       Counter:       1   Parms: SMR     MR      
 Computing Diagnostic #   1040  TRAC76       Counter:       1   Parms: SMR     MR      
 Computing Diagnostic #   1052  TRAC77       Counter:       1   Parms: SMR     MR      
 Computing Diagnostic #   1064  TRAC78       Counter:       1   Parms: SMR     MR      
 Computing Diagnostic #   1076  TRAC79       Counter:       1   Parms: SMR     MR      
 Computing Diagnostic #   1088  TRAC80       Counter:       1   Parms: SMR     MR      
 Computing Diagnostic #   1100  TRAC81       Counter:       1   Parms: SMR     MR      
 Computing Diagnostic #   1112  TRAC82       Counter:       1   Parms: SMR     MR      
 Computing Diagnostic #   1124  TRAC83       Counter:       1   Parms: SMR     MR      
 Computing Diagnostic #   1136  TRAC84       Counter:       1   Parms: SMR     MR      
 Computing Diagnostic #   1148  TRAC85       Counter:       1   Parms: SMR     MR      
 Computing Diagnostic #   1160  TRAC86       Counter:       1   Parms: SMR     MR      
 Computing Diagnostic #   1172  TRAC87       Counter:       1   Parms: SMR     MR      
 Computing Diagnostic #   1184  TRAC88       Counter:       1   Parms: SMR     MR      
 Computing Diagnostic #   1196  TRAC89       Counter:       1   Parms: SMR     MR      
 Computing Diagnostic #   1208  TRAC90       Counter:       1   Parms: SMR     MR      
 Computing Diagnostic #   1220  TRAC91       Counter:       1   Parms: SMR     MR      
 Computing Diagnostic #   1232  TRAC92       Counter:       1   Parms: SMR     MR      
 Computing Diagnostic #   1244  TRAC93       Counter:       1   Parms: SMR     MR      
 Computing Diagnostic #   1256  TRAC94       Counter:       1   Parms: SMR     MR      
 Computing Diagnostic #   1268  TRAC95       Counter:       1   Parms: SMR     MR      
 Computing Diagnostic #   1280  TRAC96       Counter:       1   Parms: SMR     MR      
 Computing Diagnostic #   1292  TRAC97       Counter:       1   Parms: SMR     MR      
 Computing Diagnostic #   1309  PAR01        Counter:       1   Parms: SM P    MR      
 Computing Diagnostic #   1306  exfPAR       Counter:       1   Parms: SM P    MR      
(PID.TID 0000.0001) // =======================================================
(PID.TID 0000.0001) // Begin MONITOR EXF statistics
(PID.TID 0000.0001) // =======================================================
(PID.TID 0000.0001) %MON exf_tsnumber                 =                     2
(PID.TID 0000.0001) %MON exf_time_sec                 =   7.2000000000000000E+03
(PID.TID 0000.0001) %MON exf_ustress_max              =   0.0000000000000000E+00
(PID.TID 0000.0001) %MON exf_ustress_min              =   0.0000000000000000E+00
(PID.TID 0000.0001) %MON exf_ustress_mean             =   0.0000000000000000E+00
(PID.TID 0000.0001) %MON exf_ustress_sd               =   0.0000000000000000E+00
(PID.TID 0000.0001) %MON exf_ustress_del2             =   0.0000000000000000E+00
(PID.TID 0000.0001) %MON exf_vstress_max              =   0.0000000000000000E+00
(PID.TID 0000.0001) %MON exf_vstress_min              =   0.0000000000000000E+00
(PID.TID 0000.0001) %MON exf_vstress_mean             =   0.0000000000000000E+00
(PID.TID 0000.0001) %MON exf_vstress_sd               =   0.0000000000000000E+00
(PID.TID 0000.0001) %MON exf_vstress_del2             =   0.0000000000000000E+00
(PID.TID 0000.0001) %MON exf_hflux_max                =   0.0000000000000000E+00
(PID.TID 0000.0001) %MON exf_hflux_min                =   0.0000000000000000E+00
(PID.TID 0000.0001) %MON exf_hflux_mean               =   0.0000000000000000E+00
(PID.TID 0000.0001) %MON exf_hflux_sd                 =   0.0000000000000000E+00
(PID.TID 0000.0001) %MON exf_hflux_del2               =   0.0000000000000000E+00
(PID.TID 0000.0001) %MON exf_sflux_max                =   0.0000000000000000E+00
(PID.TID 0000.0001) %MON exf_sflux_min                =   0.0000000000000000E+00
(PID.TID 0000.0001) %MON exf_sflux_mean               =   0.0000000000000000E+00
(PID.TID 0000.0001) %MON exf_sflux_sd                 =   0.0000000000000000E+00
(PID.TID 0000.0001) %MON exf_sflux_del2               =   0.0000000000000000E+00
(PID.TID 0000.0001) %MON exf_uwind_max                =   0.0000000000000000E+00
(PID.TID 0000.0001) %MON exf_uwind_min                =   0.0000000000000000E+00
(PID.TID 0000.0001) %MON exf_uwind_mean               =   0.0000000000000000E+00
(PID.TID 0000.0001) %MON exf_uwind_sd                 =   0.0000000000000000E+00
(PID.TID 0000.0001) %MON exf_uwind_del2               =   0.0000000000000000E+00
(PID.TID 0000.0001) %MON exf_vwind_max                =   0.0000000000000000E+00
(PID.TID 0000.0001) %MON exf_vwind_min                =   0.0000000000000000E+00
(PID.TID 0000.0001) %MON exf_vwind_mean               =   0.0000000000000000E+00
(PID.TID 0000.0001) %MON exf_vwind_sd                 =   0.0000000000000000E+00
(PID.TID 0000.0001) %MON exf_vwind_del2               =   0.0000000000000000E+00
(PID.TID 0000.0001) %MON exf_wspeed_max               =   0.0000000000000000E+00
(PID.TID 0000.0001) %MON exf_wspeed_min               =   0.0000000000000000E+00
(PID.TID 0000.0001) %MON exf_wspeed_mean              =   0.0000000000000000E+00
(PID.TID 0000.0001) %MON exf_wspeed_sd                =   0.0000000000000000E+00
(PID.TID 0000.0001) %MON exf_wspeed_del2              =   0.0000000000000000E+00
(PID.TID 0000.0001) %MON exf_evap_max                 =   0.0000000000000000E+00
(PID.TID 0000.0001) %MON exf_evap_min                 =   0.0000000000000000E+00
(PID.TID 0000.0001) %MON exf_evap_mean                =   0.0000000000000000E+00
(PID.TID 0000.0001) %MON exf_evap_sd                  =   0.0000000000000000E+00
(PID.TID 0000.0001) %MON exf_evap_del2                =   0.0000000000000000E+00
(PID.TID 0000.0001) // =======================================================
(PID.TID 0000.0001) // End MONITOR EXF statistics
(PID.TID 0000.0001) // =======================================================
 Local pointing vectors
 no(2) =   0.27363063147685535      -0.12470066308196398       0.95371695074822704     
 ea(2) =   0.41469324265623930       0.90996127087654310        0.0000000000000000     
 up(2) =   0.86784548855935806      -0.39549997488200311      -0.30070579950427312     
 ac           1   3.1515947000230023E-005   3.0400000000000000E-002
 ac           2   2.7681368817064564E-005   3.8500000000000000E-002
 ac           3   3.1889997528566401E-005   3.0400000000000000E-002
 ac           4   3.2191493627254758E-005   3.0400000000000000E-002
 ac           5   2.1876678236063319E-005   2.9200000000000000E-002
 ac           6   2.6343497207542501E-005   3.8500000000000000E-002
 ac           7   3.6459442388400859E-005   2.4500000000000001E-002
 ac           8   4.0423873299732072E-005   2.4500000000000001E-002
 ac           9   2.0901908882777811E-005   2.9200000000000000E-002
 ac          10   2.1636410868656833E-005   2.9200000000000000E-002
 ac          11   1.8388069785413397E-005   3.0400000000000000E-002
 ac          12   3.8166413828857026E-005   2.4500000000000001E-002
 ac          13   3.1901437970588742E-005   3.0400000000000000E-002
 ac          14   3.9485723071937251E-005   2.4500000000000001E-002
 ac          15   1.7884591867737902E-005   3.0400000000000000E-002
 ac          16   3.1806939845791985E-005   3.0400000000000000E-002
 ac          17   3.1570478945980360E-005   3.0400000000000000E-002
 ac          18   2.1652585417058405E-005   2.9200000000000000E-002
 ac          19   3.1683570369349280E-005   3.0400000000000000E-002
 ac          20   3.1131840833935658E-005   3.0400000000000000E-002
 ac          21   3.1821334387377406E-005   3.0400000000000000E-002
 ac          22   3.2025981563804499E-005   3.0400000000000000E-002
 ac          23   2.7207699003222280E-005   3.8500000000000000E-002
 ac          24   3.1407462649390172E-005   3.0400000000000000E-002
 ac          25   3.8280799401716094E-005   2.4500000000000001E-002
 ac          26   4.0411957412935556E-005   2.4500000000000001E-002
 ac          27   3.8201968952023816E-005   2.4500000000000001E-002
 ac          28   2.6299842412722421E-005   3.8500000000000000E-002
 ac          29   3.2127192363192628E-005   3.0400000000000000E-002
 ac          30   2.1387626976161984E-005   2.9200000000000000E-002
 ac          31   3.2010171976466136E-005   3.0400000000000000E-002
 ac          32   1.7805994760137449E-005   3.0400000000000000E-002
 ac          33   3.1625335723332763E-005   3.0400000000000000E-002
 ac          34   2.1564442563016001E-005   2.9200000000000000E-002
 ac          35   2.1691260791393149E-005   2.9200000000000000E-002
 ac          36   3.1762328444930899E-005   3.0400000000000000E-002
 ac          37   1.7994617951829885E-005   3.0400000000000000E-002
 ac          38   1.8154410458818385E-005   3.0400000000000000E-002
 ac          39   2.1632025254001654E-005   2.9200000000000000E-002
 ac          40   3.1692574701251649E-005   3.0400000000000000E-002
 ac          41   2.1558124662617403E-005   2.9200000000000000E-002
 ac          42   3.1913361243301092E-005   3.0400000000000000E-002
 ac          43   1.7852552730586847E-005   3.0400000000000000E-002
 ac          44   3.1565515721994664E-005   3.0400000000000000E-002
 ac          45   3.9484074510198186E-005   2.4500000000000001E-002
 ac          46   3.1591220191215789E-005   3.0400000000000000E-002
 ac          47   3.1551583082265688E-005   3.0400000000000000E-002
 ac          48   3.1806744960744337E-005   3.0400000000000000E-002
 ac          49   3.1243134422259191E-005   3.0400000000000000E-002
 ac          50   1.8235240692666374E-005   3.0400000000000000E-002
 ac          51   1.7444588448940231E-005   3.0400000000000000E-002
 ac          52   3.1603754973239296E-005   3.0400000000000000E-002
 ac          53   3.1893015430365435E-005   3.0400000000000000E-002
 ac          54   3.1183800479850261E-005   3.0400000000000000E-002
 ac          55   3.1816602630279122E-005   3.0400000000000000E-002
 ac          56   3.1541163580971998E-005   3.0400000000000000E-002
 ac          57   3.2156223926034862E-005   3.0400000000000000E-002
 ac          58   3.1815713234542146E-005   3.0400000000000000E-002
 ac          59   3.1260548758319427E-005   3.0400000000000000E-002
 ac          60   3.1638664729860997E-005   3.0400000000000000E-002
 ac          61   3.1791743827352022E-005   3.0400000000000000E-002
 ac          62   3.1918497198223492E-005   3.0400000000000000E-002
 ac          63   3.2014532498284293E-005   3.0400000000000000E-002
 ac          64   2.1664810428889323E-005   2.9200000000000000E-002
 ac          65   3.1916389895442020E-005   3.0400000000000000E-002
 ac          66   2.6831786109118468E-005   3.8500000000000000E-002
 ac          67   3.1902926534867086E-005   3.0400000000000000E-002
 ac          68   3.1859581336040857E-005   3.0400000000000000E-002
 ac          69   1.8494838434548612E-005   3.0400000000000000E-002
 ac          70   2.7520716555282877E-005   3.8500000000000000E-002
 ac          71   3.6641236387441750E-005   2.4500000000000001E-002
 ac          72   3.1576804137233889E-005   3.0400000000000000E-002
 ac          73   2.6842013506408880E-005   3.8500000000000000E-002
 ac          74   3.1645386731420155E-005   3.0400000000000000E-002
 ac          75   3.1809787995656966E-005   3.0400000000000000E-002
 ac          76   3.1713108145989037E-005   3.0400000000000000E-002
 ac          77   3.1230673237643501E-005   3.0400000000000000E-002
 ac          78   4.0377953599439684E-005   2.4500000000000001E-002
 abs           1           1   9.7534937758287799E-003   7.8872720085844637E-003   3.8010671597353564E-003   6.3000000000000000E-003   3.3818461838570281E-003   6.8494015379834530E-005   3.1535765919174028E-006
 abs           1           2   7.5755002371752315E-003   6.0703452141250202E-003   2.9009993746975009E-003   5.1000000000000004E-003   2.3831467270247304E-003   8.9807976104083956E-005   2.5455340464169885E-006
 abs           1           3   1.0078270625466530E-002   4.7624017534179507E-003   2.2509633584218065E-003   8.3000000000000001E-003   1.6793751145864613E-003   9.6875572932305490E-005   2.0199379477640881E-006
 abs           1           4   1.3163706676104980E-002   3.8653692122346474E-003   1.8009778534613071E-003   1.1900000000000001E-002   1.1834356414190787E-003   7.8622105748949548E-005   1.6489289369502760E-006
 abs           1           5   2.2392095385604518E-002   3.1688991866100007E-003   1.4509840413542017E-003   2.1499999999999998E-002   8.3395300145665090E-004   5.6812935192450421E-005   1.3294489554161602E-006
 abs           1           6   4.1322784206186958E-002   2.5694820042900341E-003   1.1509671003789713E-003   4.0700000000000000E-002   5.8767674751167482E-004   3.4035654866265594E-005   1.0718038090176795E-006
 abs           1           7   5.5437363470070264E-002   2.1751127537488510E-003   9.5096742976560835E-004   5.5000000000000000E-002   4.1412880457610874E-004   2.2361763738162327E-005   8.7290175599805241E-007
 abs           1           8   8.5206466203187128E-002   1.8732726957263078E-003   8.0094779392568213E-004   8.4900000000000003E-002   2.9183163619423254E-004   1.3921405227677239E-005   7.1316176523099437E-007
 abs           1           9  0.19971906752012936        1.6691157903530281E-003   7.0092682321695526E-004  0.19950000000000001        2.0565027822920027E-004   1.2843208513963578E-005   5.7403338617581483E-007
 abs           1          10  0.28515952822684526        1.4631321148937389E-003   6.0090116940597984E-004  0.28499999999999998        1.4491930171545703E-004   1.4146194446917231E-005   4.6273068293167123E-007
 abs           1          11  0.35131754167111062        1.1565453668055854E-003   4.5087006249626708E-004  0.35120000000000001        1.0212290588923528E-004   1.5043633888216678E-005   3.7513133315618776E-007
 abs           1          12  0.45601541351159736        9.5343326363167525E-004   3.5086172724532489E-004  0.45590000000000003        7.1964795467609186E-005   4.3141603115208511E-005   3.0711301450698890E-007
 abs           1          13  0.64335667840147381        9.4410521668470521E-004   3.5083020785904145E-004  0.64329999999999998        5.0712734245067434E-005   5.7172973076669037E-006   2.4836992112813530E-007
 abs           2           1   9.7561259928786084E-003   7.9065129263060519E-003   3.8011616180673772E-003   6.3000000000000000E-003   3.3824717388670090E-003   6.9616284099432380E-005   4.0379699121666565E-006
 abs           2           2   7.5781190114061914E-003   6.0884362700105938E-003   2.9010881509560875E-003   5.1000000000000004E-003   2.3835875481897275E-003   9.1272056130498866E-005   3.2594070859645887E-006
 abs           2           3   1.0080700948167388E-002   4.7788277640904630E-003   2.2510433191000696E-003   8.3000000000000001E-003   1.6796857560111306E-003   9.8428780055652654E-005   2.5864121006034794E-006
 abs           2           4   1.3165660746750922E-002   3.8821009333939618E-003   1.8010594660066853E-003   1.1900000000000001E-002   1.1836545467312166E-003   7.9894843202885354E-005   2.1113568168191671E-006
 abs           2           5   2.2393570768770164E-002   3.1851297114326767E-003   1.4510627604740391E-003   2.1499999999999998E-002   8.3410726142289055E-004   5.7761225913713333E-005   1.7022814335604534E-006
 abs           2           6   4.1323790590356936E-002   2.5850941611086130E-003   1.1510422441496505E-003   4.0700000000000000E-002   5.8778545267260433E-004   3.4632755753403458E-005   1.3723819309324584E-006
 abs           2           7   5.5438116414779998E-002   2.1903090288700891E-003   9.5103990195738116E-004   5.5000000000000000E-002   4.1420540780830672E-004   2.2793307456782029E-005   1.1176995149036466E-006
 abs           2           8   8.5206971213462990E-002   1.8880187854647340E-003   8.0101778559251032E-004   8.4900000000000003E-002   2.9188561757959643E-004   1.4172434060124660E-005   9.1316182327428970E-007
 abs           2           9  0.19971948056070205        1.6833675417403282E-003   7.0099427700242938E-004  0.19950000000000001        2.0568831826853272E-004   1.3057226341648512E-005   7.3501609185517239E-007
 abs           2          10  0.28515992077024088        1.4769146498977933E-003   6.0096624521094734E-004  0.28499999999999998        1.4494610807810706E-004   1.4382162656102358E-005   5.9249950671987874E-007
 abs           2          11  0.35131791285512998        1.1697181021214208E-003   4.5093195900783176E-004  0.35120000000000001        1.0214179601372343E-004   1.5290725440458384E-005   4.8033367582636042E-007
 abs           2          12  0.45601621566352624        9.6628966903497277E-004   3.5092214618114497E-004  0.45590000000000003        7.1978107113349285E-005   4.3844316205764713E-005   3.9324020713256982E-007
 abs           2          13  0.64335685096905704        9.5652651231083359E-004   3.5088866823647288E-004  0.64329999999999998        5.0722114803275034E-005   5.8108311332635396E-006   3.1802312053338700E-007
 abs           3           1   9.7584291381520062E-003   7.9200055973060318E-003   3.8012155412603184E-003   6.3000000000000000E-003   3.3831724397786183E-003   7.0928610406766415E-005   4.3280879666221490E-006
 abs           3           2   7.5805867642018132E-003   6.1009905979744102E-003   2.9011383953636183E-003   5.1000000000000004E-003   2.3840813237765938E-003   9.3011853079612696E-005   3.4935873456067670E-006
 abs           3           3   1.0082974522068303E-002   4.7905716882564462E-003   2.2510898331192832E-003   8.3000000000000001E-003   1.6800337137861891E-003   1.0016856893094491E-004   2.7722393511697425E-006
 abs           3           4   1.3167484273346604E-002   3.8938844602903499E-003   1.8011063357641582E-003   1.1900000000000001E-002   1.1838997484310252E-003   8.1321472384010627E-005   2.2630525315671371E-006
 abs           3           5   2.2395082287586181E-002   3.1967167791369408E-003   1.4511085696127222E-003   2.1499999999999998E-002   8.3428005214032457E-004   5.8977649342282223E-005   1.8245861035760042E-006
 abs           3           6   4.1324882084950942E-002   2.5962538455714993E-003   1.1510861000941803E-003   4.0700000000000000E-002   5.8790721623319404E-004   3.5503884572224187E-005   1.4709841455186389E-006
 abs           3           7   5.5439117932311550E-002   2.2012344102969113E-003   9.5108250376062004E-004   5.5000000000000000E-002   4.1429121313921603E-004   2.3628715738432174E-005   1.1980034338983531E-006
 abs           3           8   8.5207504163439168E-002   1.8984861520407268E-003   8.0105853438323211E-004   8.4900000000000003E-002   2.9194608357432255E-004   1.4579309644941458E-005   9.7877021990278669E-007
 abs           3           9  0.19971983671891883        1.6933254051365928E-003   7.0103306222675131E-004  0.19950000000000001        2.0573092793484921E-004   1.3317965821400581E-005   7.8782516255180947E-007
 abs           3          10  0.28516028740787025        1.4865331587136650E-003   6.0100364545648732E-004  0.28499999999999998        1.4497613460246717E-004   1.4676204151150940E-005   6.3506911667102782E-007
 abs           3          11  0.35131826830073004        1.1789728258259976E-003   4.5096777155297037E-004  0.35120000000000001        1.0216295534781566E-004   1.5590500931295364E-005   5.1484445093152355E-007
 abs           3          12  0.45601705153496225        9.7512266729638029E-004   3.5095646893327695E-004  0.45590000000000003        7.1993017844070460E-005   4.4637023584160700E-005   4.2149353400437917E-007
 abs           3          13  0.64335700379600158        9.6487746786818912E-004   3.5092126926916688E-004  0.64329999999999998        5.0732622217623252E-005   5.9303014963491717E-006   3.4087228756729999E-007
 abs           4           1   9.7610624247054072E-003   7.9349108372166639E-003   3.8012760329811015E-003   6.3000000000000000E-003   3.3839705948402223E-003   7.2418159163201197E-005   4.6736707019831979E-006
 abs           4           2   7.5833918446511495E-003   6.1148823579430999E-003   2.9011948367905849E-003   5.1000000000000004E-003   2.3846437741422547E-003   9.4975532393241707E-005   3.7725381156531037E-006
 abs           4           3   1.0085573988158226E-002   4.8035548607022341E-003   2.2511420132619621E-003   8.3000000000000001E-003   1.6804300658599285E-003   1.0215032929964177E-004   2.9935929986559044E-006
 abs           4           4   1.3169574357045105E-002   3.9069326381668502E-003   1.8011589974833600E-003   1.1900000000000001E-002   1.1841790530167247E-003   8.2951554641721263E-005   2.4437493866578814E-006
 abs           4           5   2.2396782463226440E-002   3.2095524018609252E-003   1.4511600356555362E-003   2.1499999999999998E-002   8.3447687475527073E-004   6.0335315528178290E-005   1.9702729429929169E-006
 abs           4           6   4.1326094906155492E-002   2.6086479518638204E-003   1.1511354495183307E-003   4.0700000000000000E-002   5.8804591478573386E-004   3.6460554268428362E-005   1.5884371013276227E-006
 abs           4           7   5.5440193728630974E-002   2.2133977874611312E-003   9.5113050748987338E-004   5.5000000000000000E-002   4.1438895235725211E-004   2.4511116442159344E-005   1.2936598315620160E-006
 abs           4           8   8.5208090719206736E-002   1.9101825757823520E-003   8.0110457777965644E-004   8.4900000000000003E-002   2.9201495923717103E-004   1.5018838359827189E-005   1.0569216097295337E-006
 abs           4           9  0.19972024267804117        1.7044937334407529E-003   7.0107701689854293E-004  0.19950000000000001        2.0577946379413001E-004   1.3612483991782568E-005   8.5073025523027482E-007
 abs           4          10  0.28516070273163524        1.4973321889031974E-003   6.0104606104226666E-004  0.28499999999999998        1.4501033724442661E-004   1.5006617219261710E-005   6.8577717163086797E-007
 abs           4          11  0.35131867094722918        1.1893692570186147E-003   4.5100839221582343E-004  0.35120000000000001        1.0218705754224139E-004   1.5927936701451405E-005   5.5595298546466796E-007
 abs           4          12  0.45601800839512713        9.8508556637751229E-004   3.5099553642193069E-004  0.45590000000000003        7.2010002373418353E-005   4.5543244430394539E-005   4.5514832326503031E-007
 abs           4          13  0.64335717566225503        9.7432686377851830E-004   3.5095848082453834E-004  0.64329999999999998        5.0744591013164190E-005   6.0629814905518468E-006   3.6808975136534337E-007
 abs           5           1   9.7640684043789755E-003   7.9509704610606254E-003   3.8013421246907227E-003   6.3000000000000000E-003   3.3849002196723959E-003   7.4109851117857946E-005   5.0583335887213034E-006
 abs           5           2   7.5866099770621762E-003   6.1298552791321350E-003   2.9012565000209661E-003   5.1000000000000004E-003   2.3852988696893944E-003   9.7228073397571385E-005   4.0830339752096786E-006
 abs           5           3   1.0088590201714842E-002   4.8175552079367870E-003   2.2511990699177128E-003   8.3000000000000001E-003   1.6808917038896255E-003   1.0445851944812683E-004   3.2399783770894621E-006
 abs           5           4   1.3171955185277671E-002   3.9210239601636509E-003   1.8012166702753817E-003   1.1900000000000001E-002   1.1845043638380134E-003   8.4805941131828894E-005   2.6448803078281324E-006
 abs           5           5   2.2398693038086333E-002   3.2234218615036282E-003   1.4512164323147332E-003   2.1499999999999998E-002   8.3470611741648956E-004   6.1854485921657520E-005   2.1324347481864319E-006
 abs           5           6   4.1327417910466381E-002   2.6220358237714946E-003   1.1511894518562897E-003   4.0700000000000000E-002   5.8820745935875014E-004   3.7491278907535356E-005   1.7191722000882860E-006
 abs           5           7   5.5441335780165600E-002   2.2265295673942398E-003   9.5118295135042418E-004   5.5000000000000000E-002   4.1450279089381536E-004   2.5432855758831181E-005   1.4001335129565176E-006
 abs           5           8   8.5208727908483911E-002   1.9228175588120733E-003   8.0115485782813567E-004   8.4900000000000003E-002   2.9209517989803817E-004   1.5488817852737389E-005   1.1439107331356672E-006
 abs           5           9  0.19972069719205748        1.7165775853238145E-003   7.0112506585380454E-004  0.19950000000000001        2.0583599433839244E-004   1.3940448761918839E-005   9.2074895716266851E-007
 abs           5          10  0.28516116941218300        1.5090157610829795E-003   6.0109240631908787E-004  0.28499999999999998        1.4505017364567366E-004   1.5377019000926495E-005   7.4221953638426962E-007
 abs           5          11  0.35131912514682478        1.2006070500620457E-003   4.5105270766067145E-004  0.35120000000000001        1.0221512977973744E-004   1.6308306774980355E-005   6.0171027003090006E-007
 abs           5          12  0.45601910900750037        9.9589072092947381E-004   3.5103830522481414E-004  0.45590000000000003        7.2029784544833583E-005   4.6586613998127261E-005   4.9260895733298955E-007
 abs           5          13  0.64335737385470415        9.8459487676162542E-004   3.5099928805485759E-004  0.64329999999999998        5.0758531273749275E-005   6.2169383340688257E-006   3.9838509636661244E-007
 abs           6           1   9.7653351830175785E-003   7.9657932265099832E-003   3.8014114817022265E-003   6.3000000000000000E-003   3.3851055817466333E-003   7.4563456367733504E-005   5.6661449032126525E-006
 abs           6           2   7.5878268618857041E-003   6.1437111209889051E-003   2.9013214873043380E-003   5.1000000000000004E-003   2.3854435858971894E-003   9.7809623076443289E-005   4.5736529120703429E-006
 abs           6           3   1.0089591397494088E-002   4.8301226480410584E-003   2.2512575112305115E-003   8.3000000000000001E-003   1.6809936836776479E-003   1.0496841838823912E-004   3.6292954282015685E-006
 abs           6           4   1.3172779147040037E-002   3.9337340047911956E-003   1.8012759910365438E-003   1.1900000000000001E-002   1.1845762277800250E-003   8.5240229114540264E-005   2.9626901454706680E-006
 abs           6           5   2.2399458520659995E-002   3.2356962197592331E-003   1.4512734692030658E-003   2.1499999999999998E-002   8.3475675908050524E-004   6.2313092649705803E-005   2.3886689297857263E-006
 abs           6           6   4.1328059062163490E-002   2.6337224003068851E-003   1.1512436792158924E-003   4.0700000000000000E-002   5.8824314593622557E-004   3.7890167632715270E-005   1.9257485945559343E-006
 abs           6           7   5.5441981319470854E-002   2.2377898811795668E-003   9.5123505358771601E-004   5.5000000000000000E-002   4.1452793879992510E-004   2.5885006575167027E-005   1.5683740957585350E-006
 abs           6           8   8.5209081000035714E-002   1.9335873795194556E-003   8.0120480658903777E-004   8.4900000000000003E-002   2.9211290132795506E-004   1.5686735219842867E-005   1.2813634879160639E-006
 abs           6           9  0.19972091902352643        1.7268240983584369E-003   7.0117273860645043E-004  0.19950000000000001        2.0584848241898766E-004   1.4039154600554134E-005   1.0313865068919763E-006
 abs           6          10  0.28516138054298240        1.5188840792147512E-003   6.0113831669827077E-004  0.28499999999999998        1.4505897384733257E-004   1.5490164213042516E-005   8.3140492207270630E-007
 abs           6          11  0.35131930490195279        1.2100188595139570E-003   4.5109639493254522E-004  0.35120000000000001        1.0222133117703360E-004   1.6409558767617833E-005   6.7401200809457691E-007
 abs           6          12  0.45601944705293884        1.0049044886518610E-003   3.5108035200586340E-004  0.45590000000000003        7.2034154595647802E-005   4.6861097303541727E-005   5.5180103959391188E-007
 abs           6          13  0.64335746645658420        9.9319723131662723E-004   3.5103963218726319E-004  0.64329999999999998        5.0761610796509518E-005   6.2585905845936069E-006   4.4625520316151933E-007
 abs           7           1   9.7677650991007219E-003   7.9834219182828344E-003   3.8014904341366791E-003   6.3000000000000000E-003   3.3857148108156938E-003   7.5756818510500952E-005   6.2934697745270203E-006
 abs           7           2   7.5902821076402468E-003   6.1602245322792178E-003   2.9013955247401959E-003   5.1000000000000004E-003   2.3858729023660667E-003   9.9329182286244581E-005   5.0800229879352084E-006
 abs           7           3   1.0091808418638762E-002   4.8452886535354286E-003   2.2513247470335967E-003   8.3000000000000001E-003   1.6812962178799858E-003   1.0648108939992866E-004   4.0311113588473728E-006
 abs           7           4   1.3174621073024261E-002   3.9490667226935025E-003   1.8013442094814874E-003   1.1900000000000001E-002   1.1847894200291450E-003   8.6540949845035682E-005   3.2907031500794880E-006
 abs           7           5   2.2400944797563015E-002   3.2506491934390699E-003   1.4513395392084566E-003   2.1499999999999998E-002   8.3490699311928045E-004   6.3384675028983368E-005   2.6531294147515870E-006
 abs           7           6   4.1329163263532212E-002   2.6481500950230417E-003   1.1513070105565080E-003   4.0700000000000000E-002   5.8834901407402087E-004   3.8675292410642478E-005   2.1389570475516670E-006
 abs           7           7   5.5442928838574754E-002   2.2519069196411520E-003   9.5129650120724511E-004   5.5000000000000000E-002   4.1460254281571010E-004   2.6584279778971341E-005   1.7420159800733289E-006
 abs           7           8   8.5209627536869462E-002   1.9472372314895366E-003   8.0126408242288773E-004   8.4900000000000003E-002   2.9216547388932393E-004   1.6038833867718400E-005   1.4232291124093784E-006
 abs           7           9  0.19972131241978022        1.7399317962284758E-003   7.0122962746548446E-004  0.19950000000000001        2.0588552967683034E-004   1.4281314069269756E-005   1.1455760341214215E-006
 abs           7          10  0.28516176518473518        1.5315651236742292E-003   6.0119325236347265E-004  0.28499999999999998        1.4508508060869104E-004   1.5756650555011387E-005   9.2345357149105630E-007
 abs           7          11  0.35131966304853002        1.2221962501747176E-003   4.5114889941514258E-004  0.35120000000000001        1.0223972830082404E-004   1.6674685262544778E-005   7.4863496664308342E-007
 abs           7          12  0.45602025033914456        1.0166523543956951E-003   3.5113112301787320E-004  0.45590000000000003        7.2047118829667999E-005   4.7590326853125088E-005   6.1289346170230454E-007
 abs           7          13  0.64335762196179591        1.0044377255914491E-003   3.5108839215635730E-004  0.64329999999999998        5.0770746537815876E-005   6.3555530961676438E-006   4.9566216198072284E-007
 abs           8           1   9.7618939781363868E-003   7.9823051559542862E-003   3.8015072900208233E-003   6.3000000000000000E-003   3.3833520961285201E-003   7.1639880796450257E-005   6.9020012114158326E-006
 abs           8           2   7.5837475606063704E-003   6.1590646871198069E-003   2.9014113592822359E-003   5.1000000000000004E-003   2.3842079254666119E-003   9.3968411939693151E-005   5.5712232000644130E-006
 abs           8           3   1.0085158460600527E-002   4.8430034360246784E-003   2.2513344389300987E-003   8.3000000000000001E-003   1.6801229284892833E-003   1.0061464244641685E-004   4.4208896648284424E-006
 abs           8           4   1.3169334229936545E-002   3.9468024384508929E-003   1.8013542332777671E-003   1.1900000000000001E-002   1.1839626169697236E-003   8.1762723444511282E-005   3.6088895223089326E-006
 abs           8           5   2.2397296042298273E-002   3.2475662284973798E-003   1.4513461024280190E-003   2.1499999999999998E-002   8.3432435485076325E-004   6.0062020270150618E-005   2.9096671773615769E-006
 abs           8           6   4.1327051048965308E-002   2.6442389629286558E-003   1.1513108495750696E-003   4.0700000000000000E-002   5.8793843582558242E-004   3.6766834950227142E-005   2.3457781895008057E-006
 abs           8           7   5.5441738652557367E-002   2.2470128704429465E-003   9.5129728466064026E-004   5.5000000000000000E-002   4.1431321321413800E-004   2.5514983452352486E-005   1.9104558908722911E-006
 abs           8           8   8.5208817909851298E-002   1.9418458183206220E-003   8.0126334198059106E-004   8.4900000000000003E-002   2.9196158676509298E-004   1.5295478367798724E-005   1.5608447183986132E-006
 abs           8           9  0.19972051444139238        1.7341895277524172E-003   7.0122743873710070E-004  0.19950000000000001        2.0574185284873779E-004   1.3516243878697690E-005   1.2563446649537970E-006
 abs           8          10  0.28516091755877221        1.5257502610285750E-003   6.0119048779459631E-004  0.28499999999999998        1.4498383325916564E-004   1.4920980890852196E-005   1.0127446221979441E-006
 abs           8          11  0.35131876961382552        1.2162278469466242E-003   4.5114523401459884E-004  0.35120000000000001        1.0216838049949791E-004   1.5780210959699472E-005   8.2102236632528202E-007
 abs           8          12  0.45601764314528698        1.0104566840436527E-003   3.5112615692388101E-004  0.45590000000000003        7.1996840883845864E-005   4.4974148729610537E-005   6.7215567353003852E-007
 abs           8          13  0.64335730178162898        9.9840742479875605E-004   3.5108353327441863E-004  0.64329999999999998        5.0735316268219494E-005   6.0228763765425477E-006   5.4358898429778294E-007
 abs           9           1   9.7558125458668456E-003   7.9792213146470739E-003   3.8015169723707156E-003   6.3000000000000000E-003   3.3808935242193188E-003   6.7410227921886788E-005   7.5087937256412946E-006
 abs           9           2   7.5769080161974837E-003   6.1561470179363554E-003   2.9014207690087543E-003   5.1000000000000004E-003   2.3824753991244806E-003   8.8371597300998441E-005   6.0610197720045742E-006
 abs           9           3   1.0078221781016222E-002   4.8390614568668347E-003   2.2513380200926102E-003   8.3000000000000001E-003   1.6789020378108596E-003   9.4510189054297853E-005   4.8095541510643591E-006
 abs           9           4   1.3163897069414078E-002   3.9429074267846673E-003   1.8013581994187418E-003   1.1900000000000001E-002   1.1831022698497898E-003   7.6868632910356350E-005   3.9261666539300886E-006
 abs           9           5   2.2393462878092726E-002   3.2429109846824860E-003   1.4513467778334581E-003   2.1499999999999998E-002   8.3371807848232210E-004   5.6579327745675192E-005   3.1654718647311343E-006
 abs           9           6   4.1324823948602582E-002   2.6389618015557896E-003   1.1513095363175434E-003   4.0700000000000000E-002   5.8751120008966400E-004   3.4760740187867378E-005   2.5520083250545577E-006
 abs           9           7   5.5440357799359775E-002   2.2409301145815737E-003   9.5129354439794922E-004   5.5000000000000000E-002   4.1401214527953407E-004   2.4267239607817162E-005   2.0784144724242410E-006
 abs           9           8   8.5207931866512682E-002   1.9354708568917447E-003   8.0125879565363359E-004   8.4900000000000003E-002   2.9174942777738139E-004   1.4484371657480650E-005   1.6980670778247634E-006
 abs           9           9  0.19971969389099728        1.7276353812421151E-003   7.0122202072237167E-004  0.19950000000000001        2.0559234693697065E-004   1.2734747293888841E-005   1.3667967663994121E-006
 abs           9          10  0.28516003785450705        1.5191998023180934E-003   6.0118477374843343E-004  0.28499999999999998        1.4487847822380081E-004   1.4057595766031524E-005   1.1017805172591312E-006
 abs           9          11  0.35131783591037641        1.2096032084392087E-003   4.5113892704183741E-004  0.35120000000000001        1.0209413806088441E-004   1.4848569401742801E-005   8.9320291376909518E-007
 abs           9          12  0.45601498061588935        1.0037198062011303E-003   3.5111888937726756E-004  0.45590000000000003        7.1944523121603260E-005   4.2304844228463823E-005   7.3124853929447893E-007
 abs           9          13  0.64335695333885234        9.9193600687244696E-004   3.5107670942850826E-004  0.64329999999999998        5.0698448564286397E-005   5.6635114358199543E-006   5.9137885224821963E-007
 abs          10           1   9.7357789391690191E-003   7.9361954370682723E-003   3.8013829050002417E-003   6.3000000000000000E-003   3.3734901837941186E-003   5.4488716781676315E-005   7.8000385932239585E-006
 abs          10           2   7.5548302286030013E-003   6.1158493980721660E-003   2.9012961662511724E-003   5.1000000000000004E-003   2.3772583533027093E-003   7.1275765716872407E-005   6.2961095834193375E-006
 abs          10           3   1.0056349989691658E-002   4.7988880003247613E-003   2.2512122777982074E-003   8.3000000000000001E-003   1.6752256477567404E-003   7.6128238783700441E-005   4.9961031512153459E-006
 abs          10           4   1.3146658517288206E-002   3.9025369163956203E-003   1.8012314913535522E-003   1.1900000000000001E-002   1.1805115615654916E-003   6.2068504170701908E-005   4.0784515520125272E-006
 abs          10           5   2.2380896107114998E-002   3.2014355640502413E-003   1.4512161838804623E-003   2.1499999999999998E-002   8.3189243721044155E-004   4.5715418340747940E-005   3.2882515638100999E-006
 abs          10           6   4.1317091087201253E-002   2.5971576320332188E-003   1.1511800761798503E-003   4.0700000000000000E-002   5.8622469242927092E-004   2.8215401263175197E-005   2.6509935088081426E-006
 abs          10           7   5.5434975168641612E-002   2.1979095481844371E-003   9.5116240200288820E-004   5.5000000000000000E-002   4.1310555865392318E-004   1.9710579697335642E-005   2.1590302903466317E-006
 abs          10           8   8.5204622641534181E-002   1.8928110995056866E-003   8.0113054668477009E-004   8.4900000000000003E-002   2.9111056698001510E-004   1.1748144257913659E-005   1.7639302962454180E-006
 abs          10           9  0.19971687788703285        1.6857129429554323E-003   7.0109669974174405E-004  0.19950000000000001        2.0514214934207843E-004   1.0315926744227767E-005   1.4198109465443608E-006
 abs          10          10  0.28515708204078266        1.4781741681485370E-003   6.0106275394840379E-004  0.28499999999999998        1.4456122934066026E-004   1.1376295975278412E-005   1.1445154667835154E-006
 abs          10          11  0.35131478331992899        1.1694415102495670E-003   4.5102046380202045E-004  0.35120000000000001        1.0187057655145870E-004   1.1984895649407729E-005   9.2784772808284983E-007
 abs          10          12  0.45600675665627510        9.6417391499398057E-004   3.5100154992691811E-004  0.45590000000000003        7.1786981988591415E-005   3.4210062684937542E-005   7.5961160156233305E-007
 abs          10          13  0.64335575560981162        9.5409033412415520E-004   3.5096457526924158E-004  0.64329999999999998        5.0587431204212164E-005   4.5538618424457672E-006   6.1431676502188683E-007
 abs          11           1   9.7107917852648426E-003   7.8785375833450091E-003   3.8011964358482370E-003   6.3000000000000000E-003   3.3643674484648703E-003   3.8465785861823931E-005   7.9585509381490914E-006
 abs          11           2   7.5274032674355904E-003   6.0618220442130400E-003   2.9011225584846703E-003   5.1000000000000004E-003   2.3708296703705317E-003   5.0149537974461227E-005   6.4240590905974687E-006
 abs          11           3   1.0029270222705380E-002   4.7454297603250128E-003   2.2510394145566020E-003   8.3000000000000001E-003   1.6706954314618567E-003   5.3477157309283990E-005   5.0976339342392874E-006
 abs          11           4   1.3125237506568414E-002   3.8487922272124352E-003   1.8010571904522961E-003   1.1900000000000001E-002   1.1773191720986374E-003   4.3757000645906527E-005   4.1613338238688066E-006
 abs          11           5   2.2365234108896442E-002   3.1464549023107824E-003   1.4510378069222266E-003   2.1499999999999998E-002   8.2964279837540605E-004   3.2236235125543270E-005   3.3550753954942252E-006
 abs          11           6   4.1307358353861845E-002   2.5418735073846907E-003   1.1510036365265561E-003   4.0700000000000000E-002   5.8463939873605261E-004   2.0014088140269448E-005   2.7048669855147238E-006
 abs          11           7   5.5428153533942426E-002   2.1411764554159717E-003   9.5098422209075582E-004   5.5000000000000000E-002   4.1198842106960606E-004   1.3962206779805666E-005   2.2029060930105495E-006
 abs          11           8   8.5200440896700674E-002   1.8366075553565631E-003   8.0095632311212497E-004   8.4900000000000003E-002   2.9032333342976973E-004   8.3177863920883396E-006   1.7997768788232587E-006
 abs          11           9  0.19971333997088192        1.6305448722898329E-003   7.0092665722599383E-004  0.19950000000000001        2.0458739523539354E-004   7.3039113090648411E-006   1.4486643374343279E-006
 abs          11          10  0.28515338017225089        1.4242132063798938E-003   6.0089725015224080E-004  0.28499999999999998        1.4417030072895687E-004   8.0420972176384536E-006   1.1677743043231838E-006
 abs          11          11  0.35131098243233821        1.1166636304668935E-003   4.5085991498515038E-004  0.35120000000000001        1.0159509381486104E-004   8.4406350784508694E-006   9.4670344493015332E-007
 abs          11          12  0.45599653816678093        9.1228006809898220E-004   3.5084294022824495E-004  0.45590000000000003        7.1592852585187930E-005   2.4170265771006935E-005   7.7504842469556503E-007
 abs          11          13  0.64335426566740606        9.0441845402739515E-004   3.5081289980021257E-004  0.64329999999999998        5.0450630525769528E-005   3.1882359730930692E-006   6.2680090722023892E-007
 abs          12           1   9.6867701436871914E-003   7.8217453523550251E-003   3.8010149927225206E-003   6.3000000000000000E-003   3.3556832740728529E-003   2.2979734229657746E-005   8.1071353846817068E-006
 abs          12           2   7.5011786977407244E-003   6.0085379572110496E-003   2.9009533178679684E-003   5.1000000000000004E-003   2.3647100361074368E-003   2.9924666731272168E-005   6.5439949020143190E-006
 abs          12           3   1.0003490794170549E-002   4.6927495695336767E-003   2.2508711370567928E-003   8.3000000000000001E-003   1.6663829980832193E-003   3.1914990416094969E-005   5.1928056712340348E-006
 abs          12           4   1.3104676250306134E-002   3.7958624808155940E-003   1.8008876986202410E-003   1.1900000000000001E-002   1.1742802516590061E-003   2.6156973609385341E-005   4.2390250377420691E-006
 abs          12           5   2.2350157915184018E-002   3.0922976809797083E-003   1.4508643280489923E-003   2.1499999999999998E-002   8.2750130733599510E-004   1.9238893911344934E-005   3.4177139366795437E-006
 abs          12           6   4.1297833552259341E-002   2.4872286221661326E-003   1.1508311549576651E-003   4.0700000000000000E-002   5.8313031550634041E-004   1.1947870478472162E-005   2.7553662745323451E-006
 abs          12           7   5.5421466008561834E-002   2.0849112917454464E-003   9.5080913934915629E-004   5.5000000000000000E-002   4.1092498809123363E-004   8.2969865912461161E-006   2.2440338793547080E-006
 abs          12           8   8.5196363008199036E-002   1.7807222720260516E-003   8.0078443680228111E-004   8.4900000000000003E-002   2.8957394487569657E-004   4.9556849945270902E-006   1.8333783288234450E-006
 abs          12           9  0.19970990117206144        1.5756248240964420E-003   7.0075861316824827E-004  0.19950000000000001        2.0405931004676664E-004   4.3661514234073130E-006   1.4757105912639578E-006
 abs          12          10  0.28514979044610050        1.3704425902800695E-003   6.0073343318807688E-004  0.28499999999999998        1.4379816538617461E-004   4.8027043131535854E-006   1.1895764012163683E-006
 abs          12          11  0.35130733761467459        1.0639871888605190E-003   4.5070056786160784E-004  0.35120000000000001        1.0133285447103901E-004   5.0403820074384087E-006   9.6437819608632063E-007
 abs          12          12  0.45598663590076360        8.6052709706200398E-004   3.5068578532505287E-004  0.45590000000000003        7.1408055642940903E-005   1.4438326707390877E-005   7.8951841327946032E-007
 abs          12          13  0.64335285630399719        8.5487277967560881E-004   3.5066260181144807E-004  0.64329999999999998        5.0320406321551606E-005   1.8973945293123957E-006   6.3850314630989916E-007
 abs          13           1   9.6764052901712454E-003   7.7970515293680816E-003   3.8009355321453370E-003   6.3000000000000000E-003   3.3519434671827795E-003   1.6308189893158151E-005   8.1536330953082366E-006
 abs          13           2   7.4898724331108361E-003   5.9853646438271070E-003   2.9008791734116460E-003   5.1000000000000004E-003   2.3620746387341541E-003   2.1216267008899438E-005   6.5815273677814847E-006
 abs          13           3   9.9923777781741087E-003   4.6698656457639246E-003   2.2507975724591098E-003   8.3000000000000001E-003   1.6645258649425909E-003   2.2629324712954651E-005   5.2225885185634462E-006
 abs          13           4   1.3095798522003361E-002   3.7728653587901354E-003   1.8008135831750276E-003   1.1900000000000001E-002   1.1729715520537834E-003   1.8563632383404392E-005   4.2633375661742419E-006
 abs          13           5   2.2343654930152581E-002   3.0687813401361970E-003   1.4507885525594328E-003   2.1499999999999998E-002   8.2657908231117505E-004   1.3638531928677477E-005   3.4373159127279827E-006
 abs          13           6   4.1293722942983176E-002   2.4635046667224408E-003   1.1507558354800576E-003   4.0700000000000000E-002   5.8248043451530917E-004   8.4713390498523102E-006   2.7711694180132570E-006
 abs          13           7   5.5418582771492801E-002   2.0604903644497667E-003   9.5073271731036110E-004   5.5000000000000000E-002   4.1046702469711932E-004   5.8588424715877927E-006   2.2569043240934895E-006
 abs          13           8   8.5194602851211762E-002   1.7564639047355718E-003   8.0070939849151944E-004   8.4900000000000003E-002   2.8925122352633706E-004   3.5077341880396465E-006   1.8438934973703595E-006
 abs          13           9  0.19970841582696527        1.5517840047805111E-003   7.0068525012134404E-004  0.19950000000000001        2.0383189215557505E-004   3.0997604194501468E-006   1.4841743902244078E-006
 abs          13          10  0.28514824194286564        1.3471011599083804E-003   6.0066191733151853E-004  0.28499999999999998        1.4363790670686297E-004   3.4076370543346040E-006   1.1963991045076466E-006
 abs          13          11  0.35130576373185651        1.0411234060386451E-003   4.5063101463417267E-004  0.35120000000000001        1.0121992208845403E-004   3.5739004717249466E-006   9.6990929630463992E-007
 abs          13          12  0.45598237390922713        8.3806345172053533E-004   3.5061719729919896E-004  0.45590000000000003        7.1328473537989710E-005   1.0251389067465295E-005   7.9404662169995242E-007
 abs          13          13  0.64335224914173750        8.3336247205306865E-004   3.5059698566208917E-004  0.64329999999999998        5.0264325760037758E-005   1.3426507565788089E-006   6.4216522090499510E-007
 abs          14           1   9.6799381664125841E-003   7.8078289464449798E-003   3.8009637478327676E-003   6.3000000000000000E-003   3.3529660438971196E-003   1.8815221080143249E-005   8.1569014353217980E-006
 abs          14           2   7.4932668622171234E-003   5.9957407349799461E-003   2.9009066017863330E-003   5.1000000000000004E-003   2.3627952363655734E-003   2.3887460313887803E-005   6.5841655376617117E-006
 abs          14           3   9.9954266510306963E-003   4.6800563394601979E-003   2.2508242965915168E-003   8.3000000000000001E-003   1.6650336615109318E-003   2.5168307554658495E-005   5.2246819651080795E-006
 abs          14           4   1.3098814091705055E-002   3.7830512291991436E-003   1.8008401028990714E-003   1.1900000000000001E-002   1.1733293902474933E-003   2.1219654955433273E-005   4.2650465021290448E-006
 abs          14           5   2.2345887492518458E-002   3.0793027561931267E-003   1.4508159568993118E-003   2.1499999999999998E-002   8.2683124662432880E-004   1.5617552151788443E-005   3.4386937423415425E-006
 abs          14           6   4.1295554405848568E-002   2.4748184330640401E-003   1.1507860935655908E-003   4.0700000000000000E-002   5.8265813170344069E-004   1.0123993918745946E-005   2.7722802263838789E-006
 abs          14           7   5.5419797112405508E-002   2.0728291205328927E-003   9.5076645783038506E-004   5.5000000000000000E-002   4.1059224578917215E-004   6.9470576242655503E-006   2.2578089920645632E-006
 abs          14           8   8.5195323763557762E-002   1.7692833575693892E-003   8.0074495518299513E-004   8.4900000000000003E-002   2.8933946533848823E-004   4.1396656070953478E-006   1.8446326121708118E-006
 abs          14           9  0.19970903236831933        1.5646915691244698E-003   7.0072120673386762E-004  0.19950000000000001        2.0389407510961317E-004   3.6535238961441431E-006   1.4847693135536736E-006
 abs          14          10  0.28514884965711218        1.3599293870232751E-003   6.0069783421998842E-004  0.28499999999999998        1.4368172629395715E-004   3.9710521435339193E-006   1.1968786746599632E-006
 abs          14          11  0.35130627740568621        1.0539697460507373E-003   4.5066730230315731E-004  0.35120000000000001        1.0125080122957571E-004   4.0563063773980997E-006   9.7029807923435747E-007
 abs          14          12  0.45598403179425806        8.5066813974178266E-004   3.5065253481514211E-004  0.45590000000000003        7.1350233700958894E-005   1.1887195646058107E-005   7.9436491102153449E-007
 abs          14          13  0.64335237684762214        8.4552525769622847E-004   3.5063104702276135E-004  0.64329999999999998        5.0279659887712484E-005   1.4547651050584084E-006   6.4242262938318734E-007
 abs          15           1   9.6755034300312227E-003   7.7956471964610629E-003   3.8009222981876035E-003   6.3000000000000000E-003   3.3513246543701190E-003   1.6021874761722857E-005   8.1569008993790462E-006
 abs          15           2   7.4883050990219076E-003   5.9844312646757259E-003   2.9008683165719258E-003   5.1000000000000004E-003   2.3616385687153067E-003   2.0082365201546049E-005   6.5841651050543274E-006
 abs          15           3   9.9905361111859801E-003   4.6689997146046637E-003   2.2507867225182070E-003   8.3000000000000001E-003   1.6642185715940259E-003   2.1092857970128815E-005   5.2246816218244877E-006
 abs          15           4   1.3095045610377637E-002   3.7719673716520284E-003   1.8008022939772056E-003   1.1900000000000001E-002   1.1727550060910000E-003   1.8025558064738895E-005   4.2650462218975412E-006
 abs          15           5   2.2343050909241248E-002   3.0681022978856667E-003   1.4507777648427585E-003   2.1499999999999998E-002   8.2642648495032491E-004   1.3185730774520386E-005   3.4386935164048923E-006
 abs          15           6   4.1293805203739903E-002   2.4638464795889436E-003   1.1507492655545297E-003   4.0700000000000000E-002   5.8237290097259552E-004   8.6600227230715426E-006   2.7722800442334014E-006
 abs          15           7   5.5418441638283918E-002   2.0618609598624256E-003   9.5073024528804140E-004   5.5000000000000000E-002   4.1039124709032376E-004   5.7925823498726469E-006   2.2578088437170106E-006
 abs          15           8   8.5194537013747407E-002   1.7586682355265303E-003   8.0071036277718952E-004   8.4900000000000003E-002   2.8919782394936088E-004   3.4945573070705771E-006   1.8446324909706864E-006
 abs          15           9  0.19970841546542961        1.5544649798056971E-003   7.0068806605375208E-004  0.19950000000000001        2.0379426210968387E-004   3.1364341039330990E-006   1.4847692159980814E-006
 abs          15          10  0.28514819503541250        1.3500047151976068E-003   6.0066584634034005E-004  0.28499999999999998        1.4361138926170789E-004   3.3867675548183983E-006   1.1968785960199974E-006
 abs          15          11  0.35130559161881575        1.0443535798928304E-003   4.5063660556454607E-004  0.35120000000000001        1.0120123556068349E-004   3.4200852395894706E-006   9.7029801548169043E-007
 abs          15          12  0.45598227415307557        8.4133425529076965E-004   3.5062256643818345E-004  0.45590000000000003        7.1315305364431607E-005   1.0164482852296794E-005   7.9436485882841693E-007
 abs          15          13  0.64335209151442163        8.3667921240741978E-004   3.5060264899064290E-004  0.64329999999999998        5.0255046304968011E-005   1.1940455295391553E-006   6.4242258717331709E-007
 abs          16           1   9.6583422270820687E-003   7.7529467262512407E-003   3.8007877647600738E-003   6.3000000000000000E-003   3.3453527981646249E-003   4.8327566425649521E-006   8.1566722748794821E-006
 abs          16           2   7.4699844293116017E-003   5.9441136393153446E-003   2.9007417741836179E-003   5.1000000000000004E-003   2.3574302727737825E-003   5.9701759760698329E-006   6.5839805617491236E-006
 abs          16           3   9.9727427485787352E-003   4.6292837280698697E-003   2.2506619594371232E-003   8.3000000000000001E-003   1.6612530355660220E-003   6.2651778301106691E-006   5.2245351826025441E-006
 abs          16           4   1.3080362664420732E-002   3.7320588034483173E-003   1.8006767576930784E-003   1.1900000000000001E-002   1.1706652281724338E-003   5.4325095686216850E-006   4.2649266796755464E-006
 abs          16           5   2.2332316873911698E-002   3.0272227572570891E-003   1.4506493652528200E-003   2.1499999999999998E-002   8.2495384334095427E-004   3.9244334352547158E-006   3.4385971354884092E-006
 abs          16           6   4.1286705574708357E-002   2.4220195747849732E-003   1.1506192421411126E-003   4.0700000000000000E-002   5.8133514797004788E-004   2.5982243965206639E-006   2.7722023417891050E-006
 abs          16           7   5.5413574727413296E-002   2.0182335517701100E-003   9.5059595296650209E-004   5.5000000000000000E-002   4.0965995490935855E-004   1.6570269428790710E-006   2.2577455610532424E-006
 abs          16           8   8.5191553984497695E-002   1.7148283384020764E-003   8.0057643599868789E-004   8.4900000000000003E-002   2.8868249105933025E-004   1.0269126493993912E-006   1.8445807889596738E-006
 abs          16           9  0.19970586842756358        1.5110798060263501E-003   7.0055603627165806E-004  0.19950000000000001        2.0343111315983899E-004   9.5258680334094800E-007   1.4847276003620495E-006
 abs          16          10  0.28514557281235497        1.3073659487213701E-003   6.0053643983826914E-004  0.28499999999999998        1.4335548252195836E-004   1.0204847834982864E-006   1.1968450494839501E-006
 abs          16          11  0.35130301020063243        1.0023678769637832E-003   4.5050972533570218E-004  0.35120000000000001        1.0102090112910324E-004   1.0190286836659469E-006   9.7027081962618665E-007
 abs          16          12  0.45597506649847902        8.0004058612471887E-004   3.5049763862596539E-004  0.45590000000000003        7.1188225838330807E-005   3.0839300465291573E-006   7.9434259408957044E-007
 abs          16          13  0.64335115214547622        7.9701637209571253E-004   3.5048275999481518E-004  0.64329999999999998        5.0165494876477679E-005   3.4424601864707339E-007   6.4240458112612911E-007
 abs          17           1   9.6569926117374243E-003   7.7492450561464608E-003   3.8007764403130517E-003   6.3000000000000000E-003   3.3448824889329024E-003   3.9447233506310267E-006   8.1653994538905232E-006
 abs          17           2   7.4685354435781240E-003   5.9406365795349305E-003   2.9007311723070373E-003   5.1000000000000004E-003   2.3570988514597028E-003   4.8455670690379688E-006   6.5910250493822192E-006
 abs          17           3   9.9713470466202669E-003   4.6258658522672488E-003   2.2506515023894007E-003   8.3000000000000001E-003   1.6610194869133112E-003   5.0974345665546676E-006   5.2301251404004664E-006
 abs          17           4   1.3079211274719182E-002   3.7286385564300403E-003   1.8006662894293848E-003   1.1900000000000001E-002   1.1705006492184987E-003   4.4411355901513210E-006   4.2694899105309935E-006
 abs          17           5   2.2331454797734435E-002   3.0237330481676476E-003   1.4506386810351709E-003   2.1499999999999998E-002   8.2483786651229771E-004   3.1746549817718913E-006   3.4422762403656131E-006
 abs          17           6   4.1286122748596513E-002   2.4184818092587387E-003   1.1506084895821051E-003   4.0700000000000000E-002   5.8125342048021022E-004   2.0941596744525611E-006   2.7751684418451452E-006
 abs          17           7   5.5413146727727826E-002   2.0145739655600130E-003   9.5058490553363536E-004   5.5000000000000000E-002   4.0960236252066742E-004   1.2842039857727815E-006   2.2601612213873446E-006
 abs          17           8   8.5191304284555916E-002   1.7111855058887758E-003   8.0056550681013275E-004   8.4900000000000003E-002   2.8864190638896114E-004   8.1582378065481000E-007   1.8465543863046544E-006
 abs          17           9  0.19970566677967114        1.5075062576450119E-003   7.0054535098733870E-004  0.19950000000000001        2.0340251362600473E-004   7.7794987001212904E-007   1.4863161751036018E-006
 abs          17          10  0.28514536373584976        1.3038625561846674E-003   6.0052598622007173E-004  0.28499999999999998        1.4333532877109381E-004   8.3028147258079973E-007   1.1981256061427599E-006
 abs          17          11  0.35130280491150051        9.9892343728402852E-004   4.5049947821860446E-004  0.35120000000000001        1.0100669902090584E-004   8.2690352494780557E-007   9.7130895464580079E-007
 abs          17          12  0.45597449940598161        7.9668205784502700E-004   3.5048764371587739E-004  0.45590000000000003        7.1178217781835211E-005   2.5259957038792657E-006   7.9519249583639730E-007
 abs          17          13  0.64335107683560966        7.9381063362580595E-004   3.5047323431817485E-004  0.64329999999999998        5.0158442318264003E-005   2.7530137358094473E-007   6.4309191777373076E-007
 abs          18           1   9.6553453715595792E-003   7.7459136061360494E-003   3.8007665969108546E-003   6.3000000000000000E-003   3.3443136676235799E-003   2.8572146288097784E-006   8.1744893071903348E-006
 abs          18           2   7.4668047403946445E-003   5.9374500565169373E-003   2.9007217861400057E-003   5.1000000000000004E-003   2.3566980098578450E-003   3.5083682528907354E-006   6.5983622839085376E-006
 abs          18           3   9.9696580590630871E-003   4.6226806221337513E-003   2.2506420744029202E-003   8.3000000000000001E-003   1.6607370186106183E-003   3.6850930530904587E-006   5.2359473993768160E-006
 abs          18           4   1.3077789275659179E-002   3.7254242670215249E-003   1.8006567682851127E-003   1.1900000000000001E-002   1.1703015971698679E-003   3.2134357143077196E-006   4.2742427750014827E-006
 abs          18           5   2.2330447036257091E-002   3.0203905737474454E-003   1.4506287680320707E-003   2.1499999999999998E-002   8.2469759690439353E-004   2.3033311153554213E-006   3.4461082373449453E-006
 abs          18           6   4.1285458166027564E-002   2.4149552714597569E-003   1.1505980943932192E-003   4.0700000000000000E-002   5.8115457415817062E-004   1.5253340656353010E-006   2.7782578037509634E-006
 abs          18           7   5.5412739803758430E-002   2.0107908397687373E-003   9.5057381197521658E-004   5.5000000000000000E-002   4.0953270669481361E-004   9.4441979460736903E-007   2.2626772690164100E-006
 abs          18           8   8.5191037345392753E-002   1.7072935953819160E-003   8.0055414422057741E-004   8.4900000000000003E-002   2.8859282075810244E-004   5.9591463445706726E-007   1.8486100001881411E-006
 abs          18           9  0.19970542012344530        1.5035845124152362E-003   7.0053392092572721E-004  0.19950000000000001        2.0336792356656226E-004   5.6422911268840292E-007   1.4879707660473909E-006
 abs          18          10  0.28514511269967013        1.2999812331621757E-003   6.0051469006056275E-004  0.28499999999999998        1.4331095356818208E-004   6.0228672327057266E-007   1.1994593787347911E-006
 abs          18          11  0.35130256101050938        9.9507148961938035E-004   4.5048829236520233E-004  0.35120000000000001        1.0098952210572946E-004   5.9909817232065221E-007   9.7239023131283704E-007
 abs          18          12  0.45597379087154605        7.9284668986428618E-004   3.5047648807668764E-004  0.45590000000000003        7.1166113414292297E-005   1.8286804148643193E-006   7.9607771684402603E-007
 abs          18          13  0.64335099314126842        7.9009393459278897E-004   3.5046242908985393E-004  0.64329999999999998        5.0149912514622936E-005   1.9942093589288530E-007   6.4380781798459826E-007
 abs          19           1   9.6536638678014017E-003   7.7423591433797845E-003   3.8007560432827495E-003   6.3000000000000000E-003   3.3437332733378374E-003   1.7470103167900379E-006   8.1835841467748519E-006
 abs          19           2   7.4650349992576529E-003   5.9340589091948642E-003   2.9007117484700791E-003   5.1000000000000004E-003   2.3562890129173414E-003   2.1402827969991214E-006   6.6057035433117259E-006
 abs          19           3   9.9679345928796667E-003   4.6193001043419212E-003   2.2506320247715058E-003   8.3000000000000001E-003   1.6604488033379141E-003   2.2440166895692086E-006   5.2417728521825844E-006
 abs          19           4   1.3076339833303008E-002   3.7220172523978884E-003   1.8006466337358450E-003   1.1900000000000001E-002   1.1700984952999183E-003   1.9623397564090746E-006   4.2789982466796616E-006
 abs          19           5   2.2329413008993840E-002   3.0168576398669068E-003   1.4506182490102867E-003   2.1499999999999998E-002   8.2455447343564032E-004   1.4085932218179740E-006   3.4499423363854767E-006
 abs          19           6   4.1284772864047463E-002   2.4112474889724901E-003   1.1505871229156690E-003   4.0700000000000000E-002   5.8105371675438110E-004   9.3779843273799733E-007   2.7813488603417796E-006
 abs          19           7   5.5412309884980138E-002   2.0068318524873296E-003   9.5056215967023120E-004   5.5000000000000000E-002   4.0946163368360316E-004   5.8305659969314155E-007   2.2651946968360454E-006
 abs          19           8   8.5190759938105404E-002   1.7032375353391018E-003   8.0054226052681454E-004   8.4900000000000003E-002   2.8854273645360196E-004   3.6653491011760021E-007   1.8506667416889534E-006
 abs          19           9  0.19970516805271513        1.4995111207416504E-003   7.0052200983521866E-004  0.19950000000000001        2.0333262975369895E-004   3.4579669681479743E-007   1.4896262646253569E-006
 abs          19          10  0.28514485570222747        1.2959543568684649E-003   6.0050293233963837E-004  0.28499999999999998        1.4328608243861652E-004   3.6882590589550957E-007   1.2007938829744799E-006
 abs          19          11  0.35130231131867068        9.9107931433242789E-004   4.5047666197369483E-004  0.35120000000000001        1.0097199571694677E-004   3.6585085262079011E-007   9.7347210111962286E-007
 abs          19          12  0.45597306903224616        7.8888239930357152E-004   3.5046492407354260E-004  0.45590000000000003        7.1153762776861356E-005   1.1183060458478372E-006   7.9696342344408681E-007
 abs          19          13  0.64335090695700248        7.8625932079774490E-004   3.5045125061202050E-004  0.64329999999999998        5.0141209167524921E-005   1.2122372409692051E-007   6.4452411090612391E-007
 abs          20           1   9.6514589355491242E-003   7.7375225578354663E-003   3.8007416740364099E-003   6.3000000000000000E-003   3.3429779516705792E-003   2.8817154687085365E-007   8.1928123316736992E-006
 abs          20           2   7.4627217266418451E-003   5.9294460443615974E-003   2.9006980787786049E-003   5.1000000000000004E-003   2.3557567467345181E-003   3.5182746966853671E-007   6.6131524376581808E-006
 abs          20           3   9.9656900139056225E-003   4.6147127475371294E-003   2.2506183902009074E-003   8.3000000000000001E-003   1.6600737216983183E-003   3.6860849159125091E-007   5.2476837157125657E-006
 abs          20           4   1.3074441515329998E-002   3.7173973243803042E-003   1.8006328980429752E-003   1.1900000000000001E-002   1.1698341797358230E-003   3.2351215277684366E-007   4.2838234413980125E-006
 abs          20           5   2.2328053824283212E-002   3.0120743337890402E-003   1.4506040213282871E-003   2.1499999999999998E-002   8.2436821340569504E-004   2.3177822789185206E-007   3.4538326496271479E-006
 abs          20           6   4.1283861748080915E-002   2.4062313007627819E-003   1.1505722791190253E-003   4.0700000000000000E-002   5.8092246152968805E-004   1.5480131431775672E-007   2.7844852369087080E-006
 abs          20           7   5.5411732355475037E-002   2.0014797230089158E-003   9.5054639224865373E-004   5.5000000000000000E-002   4.0936913969004857E-004   9.5466750693714488E-008   2.2677490342900729E-006
 abs          20           8   8.5190390582291470E-002   1.6977579712297987E-003   8.0052617947230873E-004   8.4900000000000003E-002   2.8847755703797356E-004   6.0271615088888000E-008   1.8527536384046406E-006
 abs          20           9  0.19970483515767853        1.4940138725033601E-003   7.0050590639138472E-004  0.19950000000000001        2.0328669859581079E-004   5.7153047159299012E-008   1.4913060355366830E-006
 abs          20          10  0.28514451671856778        1.2905206099127695E-003   6.0048703429825382E-004  0.28499999999999998        1.4325371529870574E-004   6.0855315862511921E-008   1.2021479532423174E-006
 abs          20          11  0.35130198394167200        9.8569188797640347E-004   4.5046092732764319E-004  0.35120000000000001        1.0094918697895338E-004   6.0184860096699162E-008   9.7456983291804776E-007
 abs          20          12  0.45597212022559525        7.8354111283176163E-004   3.5044931415682666E-004  0.45590000000000003        7.1137689730855905E-005   1.8467374833147993E-007   7.9786211596037974E-007
 abs          20          13  0.64335079491731173        7.8109626294869472E-004   3.5043617209174421E-004  0.64329999999999998        5.0129882683439376E-005   1.9783722468421314E-008   6.4525090586057561E-007
 abs          21           1   9.6510525804911571E-003   7.7370437806562756E-003   3.8007414042359865E-003   6.3000000000000000E-003   3.3428296692042817E-003   3.4756482588016900E-010   8.2225637220507798E-006
 abs          21           2   7.4622898357836268E-003   5.9289824064162741E-003   2.9006977922925608E-003   5.1000000000000004E-003   2.3556522538466041E-003   4.1448817707384971E-010   6.6371674488449097E-006
 abs          21           3   9.9652672609903074E-003   4.6142032871822709E-003   2.2506178372609670E-003   8.3000000000000001E-003   1.6600000868047450E-003   4.3402372570661569E-010   5.2667401618364469E-006
 abs          21           4   1.3074082059730112E-002   3.7168904105106130E-003   1.8006323745709744E-003   1.1900000000000001E-002   1.1697822901033342E-003   3.8990282809101931E-010   4.2993797239481205E-006
 abs          21           5   2.2327798295552686E-002   3.0115162304538419E-003   1.4506033001450026E-003   2.1499999999999998E-002   8.2433164739970034E-004   2.7325055342323783E-010   3.4663749024331720E-006
 abs          21           6   4.1283691475226515E-002   2.4056046608087918E-003   1.1505713183564265E-003   4.0700000000000000E-002   5.8089669390077496E-004   1.8450517465754335E-010   2.7945968205662777E-006
 abs          21           7   5.5411627069530935E-002   2.0007679592520373E-003   9.5054515154645324E-004   5.5000000000000000E-002   4.0935098154885327E-004   1.0384071903330300E-010   2.2759841413650359E-006
 abs          21           8   8.5190324312181862E-002   1.6970060533791195E-003   8.0052479950463930E-004   8.4900000000000003E-002   2.8846476121214182E-004   6.9239114690434866E-011   1.8594817306075619E-006
 abs          21           9  0.19970477447271806        1.4932441162561704E-003   7.0050444737300920E-004  0.19950000000000001        2.0327768152974900E-004   6.9621880440219810E-011   1.4967215663994392E-006
 abs          21          10  0.28514445394772409        1.2897508611108192E-003   6.0048554888459716E-004  0.28499999999999998        1.4324736107964781E-004   7.3209417642791809E-011   1.2065134350329413E-006
 abs          21          11  0.35130192288926770        9.8491405427768644E-004   4.5045938176997528E-004  0.35120000000000001        1.0094470923646379E-004   7.1144016064287848E-011   9.7810888719819719E-007
 abs          21          12  0.45597193551864168        7.8276436275340764E-004   3.5044775194303062E-004  0.45590000000000003        7.1134534319054659E-005   2.2484905499367306E-010   8.0075947358533722E-007
 abs          21          13  0.64335077527522033        7.8034592609061597E-004   3.5043466828926209E-004  0.64329999999999998        5.0127659102324879E-005   2.2047155797585324E-011   6.4759407091968554E-007
 abs          22           1   9.6510852208313829E-003   7.7375954390633307E-003   3.8007443913248410E-003   6.3000000000000000E-003   3.3428294944338991E-003   6.5510198089533307E-014   8.2557263319742847E-006
 abs          22           2   7.4623160667268047E-003   5.9295015897113884E-003   2.9007006035998641E-003   5.1000000000000004E-003   2.3556521306879971E-003   7.8031372716202930E-014   6.6639359607766283E-006
 abs          22           3   9.9652879816701633E-003   4.6146628659118919E-003   2.2506203261041090E-003   8.3000000000000001E-003   1.6600000000163415E-003   8.1707169560444764E-014   5.2879815721142483E-006
 abs          22           4   1.3074098948668775E-002   3.7173608156956788E-003   1.8006349220124342E-003   1.1900000000000001E-002   1.1697822289445799E-003   7.3487687785400082E-014   4.3167196507055086E-006
 abs          22           5   2.2327811959571682E-002   3.0119649161407616E-003   1.4506057301958209E-003   2.1499999999999998E-002   8.2433160430185463E-004   5.1443637849231693E-014   3.4803552183813166E-006
 abs          22           6   4.1283702531337951E-002   2.4060294266358387E-003   1.1505736191975617E-003   4.0700000000000000E-002   5.8089666353023641E-004   3.4754964193968388E-014   2.8058677729585805E-006
 abs          22           7   5.5411636123631654E-002   2.0011731170479414E-003   9.5054734656264300E-004   5.5000000000000000E-002   4.0935096014709643E-004   1.9464990488713588E-014   2.2851634650922288E-006
 abs          22           8   8.5190331727392529E-002   1.6973959873634419E-003   8.0052691229102481E-004   8.4900000000000003E-002   2.8846474613057865E-004   1.3017602431405752E-014   1.8669812489301324E-006
 abs          22           9  0.19970478042894349        1.4936188576730115E-003   7.0050647801938942E-004  0.19950000000000001        2.0327767090195110E-004   1.3129024094643862E-014   1.5027580284018551E-006
 abs          22          10  0.28514445873305616        1.2901115229551525E-003   6.0048750333856985E-004  0.28499999999999998        1.4324735359036520E-004   1.3796935820139196E-014   1.2113794519792335E-006
 abs          22          11  0.35130192675769278        9.8525521334729706E-004   4.5046123070359331E-004  0.35120000000000001        1.0094470395885554E-004   1.3395839238360534E-014   9.8205372053550305E-007
 abs          22          12  0.45597193851967738        7.8309685352171668E-004   3.5044955397693748E-004  0.45590000000000003        7.1134530599986989E-005   4.2400276517796846E-014   8.0398903494390088E-007
 abs          22          13  0.64335077786238293        7.8066869871155616E-004   3.5043641765943111E-004  0.64329999999999998        5.0127656481542185E-005   4.1384280670377697E-015   6.5020589738751719E-007
 abs          23           1   9.6511184955620638E-003   7.7381500193507927E-003   3.8007473916046876E-003   6.3000000000000000E-003   3.3428294944010005E-003   1.7924087174682937E-017   8.2890011610442660E-006
 abs          23           2   7.4623429257196653E-003   5.9300235476242762E-003   2.9007034273926470E-003   5.1000000000000004E-003   2.3556521306648138E-003   2.1509146683281655E-017   6.6907950548298488E-006
 abs          23           3   9.9653092948613509E-003   4.6151250161256671E-003   2.2506228263372394E-003   8.3000000000000001E-003   1.6600000000000046E-003   2.2570870823843031E-017   5.3092948613224714E-006
 abs          23           4   1.3074116347187231E-002   3.7178338400345062E-003   1.8006374810745865E-003   1.1900000000000001E-002   1.1697822289330675E-003   2.0154398248839811E-017   4.3341182541407930E-006
 abs          23           5   2.2327825987136153E-002   3.0124161922168323E-003   1.4506081715998929E-003   2.1499999999999998E-002   8.2433160429374198E-004   1.4147847452796174E-017   3.4943828424010144E-006
 abs          23           6   4.1283713840389716E-002   2.4064567796173923E-003   1.1505759311777300E-003   4.0700000000000000E-002   5.8089666352451952E-004   9.4826704319008437E-018   2.8171768651915156E-006
 abs          23           7   5.5411645333993856E-002   2.0015808965814889E-003   9.5054955265050573E-004   5.5000000000000000E-002   4.0935096014306781E-004   5.3941752197082708E-018   2.2943738507857825E-006
 abs          23           8   8.5190339252272665E-002   1.6977885431091182E-003   8.0052903601822022E-004   8.4900000000000003E-002   2.8846474612773972E-004   3.5782259069528520E-018   1.8745061449158930E-006
 abs          23           9  0.19970478648581719        1.4939961896367460E-003   7.0050851938593462E-004  0.19950000000000001        2.0327767089995053E-004   3.5768504015227755E-018   1.5088149172227634E-006
 abs          23          10  0.28514446361552398        1.2904747185552559E-003   6.0048946822738379E-004  0.28499999999999998        1.4324735358895542E-004   3.7703437424260637E-018   1.2162619350682600E-006
 abs          23          11  0.35130193071586069        9.8559883551934736E-004   4.5046308970015953E-004  0.35120000000000001        1.0094470395786208E-004   3.6895929792597763E-018   9.8601190281703034E-007
 abs          23          12  0.45597194176012412        7.8343177639227687E-004   3.5045136591028205E-004  0.45590000000000003        7.1134530599286906E-005   1.1565243672362510E-017   8.0722952483372260E-007
 abs          23          13  0.64335078048304306        7.8099383487432073E-004   3.5043817664666990E-004  0.64329999999999998        5.0127656481048853E-005   1.1588180616446191E-018   6.5282656202995693E-007
 abs          24           1   9.6511526041074946E-003   7.7387184951084069E-003   3.8007504670585367E-003   6.3000000000000000E-003   3.3428294944009914E-003   6.8068899148496643E-021   8.3231097065044228E-006
 abs          24           2   7.4623704577808422E-003   5.9305585836314416E-003   2.9007063219374457E-003   5.1000000000000004E-003   2.3556521306648073E-003   8.6230845639960841E-021   6.7183271160346151E-006
 abs          24           3   9.9653311421649508E-003   4.6155987459236721E-003   2.2506253892154468E-003   8.3000000000000001E-003   1.6600000000000000E-003   9.1468037925193296E-021   5.3311421649505452E-006
 abs          24           4   1.3074134181720780E-002   3.7183187164159942E-003   1.8006401042558104E-003   1.1900000000000001E-002   1.1697822289330642E-003   7.7528055021099702E-021   4.3519527877147314E-006
 abs          24           5   2.2327840366228834E-002   3.0128787754313507E-003   1.4506106741750836E-003   2.1499999999999998E-002   8.2433160429373970E-004   5.6062266864541833E-021   3.5087619350950022E-006
 abs          24           6   4.1283725432836531E-002   2.4068948403482429E-003   1.1505783010862839E-003   4.0700000000000000E-002   5.8089666352451790E-004   3.5806736282571046E-021   2.8287693120145753E-006
 abs          24           7   5.5411654775150060E-002   2.0019988934620639E-003   9.5055181401362972E-004   5.5000000000000000E-002   4.0935096014306667E-004   2.3455363117775719E-021   2.3038150069964859E-006
 abs          24           8   8.5190346965708430E-002   1.6981909347728137E-003   8.0053121295712096E-004   8.4900000000000003E-002   2.8846474612773896E-004   1.4410332887523213E-021   1.8822195806866213E-006
 abs          24           9  0.19970479269446417        1.4943829760835632E-003   7.0051061190061210E-004  0.19950000000000001        2.0327767089994999E-004   1.3182807008698732E-021   1.5150235642231907E-006
 abs          24          10  0.28514446862033999        1.2908470144435448E-003   6.0049148234813949E-004  0.28499999999999998        1.4324735358895504E-004   1.4254327019224132E-021   1.2212667510524464E-006
 abs          24          11  0.35130193477321708        9.8595106755736584E-004   4.5046499527548532E-004  0.35120000000000001        1.0094470395786181E-004   1.4701384667590335E-021   9.9006925920510123E-007
 abs          24          12  0.45597194508180600        7.8377509116350861E-004   3.5045322324319457E-004  0.45590000000000003        7.1134530599286717E-005   4.2906191071689819E-021   8.1055120671186856E-007
 abs          24          13  0.64335078316936967        7.8132711772041898E-004   3.5043997970686747E-004  0.64329999999999998        5.0127656481048711E-005   5.1825038665144804E-022   6.5551288864953130E-007
 abs          25           1   9.6510877219019436E-003   7.7376371250158912E-003   3.8007446168463362E-003   6.3000000000000000E-003   3.3428294944009914E-003   6.2414477701397604E-021   8.2582275009534730E-006
 abs          25           2   7.4623180855430274E-003   5.9295408235443678E-003   2.9007008158553750E-003   5.1000000000000004E-003   2.3556521306648073E-003   7.9458736686480092E-021   6.6659548782206133E-006
 abs          25           3   9.9652895836280612E-003   4.6146976041799093E-003   2.2506205140386129E-003   8.3000000000000001E-003   1.6600000000000000E-003   8.4364504445715636E-021   5.2895836280617017E-006
 abs          25           4   1.3074100256384544E-002   3.7173963713370835E-003   1.8006351143689337E-003   1.1900000000000001E-002   1.1697822289330642E-003   7.1172932628825076E-021   4.3180274514789410E-006
 abs          25           5   2.2327813013926494E-002   3.0119988370227346E-003   1.4506059137082928E-003   2.1499999999999998E-002   8.2433160429373970E-004   5.1605934370229392E-021   3.4814096327548957E-006
 abs          25           6   4.1283703381367977E-002   2.4060615492769513E-003   1.1505737929815884E-003   4.0700000000000000E-002   5.8089666352451790E-004   3.2814696657963624E-021   2.8067178434613113E-006
 abs          25           7   5.5411636815925189E-002   2.0012037683940376E-003   9.5054751238701177E-004   5.5000000000000000E-002   4.0935096014306667E-004   2.1762375517425418E-021   2.2858557821266644E-006
 abs          25           8   8.5190332293000506E-002   1.6974254943739936E-003   8.0052707192456330E-004   8.4900000000000003E-002   2.8846474612773896E-004   1.3283931505742492E-021   1.8675468727646417E-006
 abs          25           9  0.19970478088420651        1.4936472203539496E-003   7.0050663146211485E-004  0.19950000000000001        2.0327767089994999E-004   1.2053267001727235E-021   1.5032133065461059E-006
 abs          25          10  0.28514445910004249        1.2901388230496227E-003   6.0048765103269837E-004  0.28499999999999998        1.4324735358895504E-004   1.3064729761838014E-021   1.2117464535712776E-006
 abs          25          11  0.35130192705520313        9.8528104216670910E-004   4.5046137043812189E-004  0.35120000000000001        1.0094470395786181E-004   1.3539460859785484E-021   9.8235124521145878E-007
 abs          25          12  0.45597193876321213        7.8312202844096955E-004   3.5044969017386567E-004  0.45590000000000003        7.1134530599286717E-005   3.9254800475710274E-021   8.0423261283795254E-007
 abs          25          13  0.64335077805936591        7.8069313799951270E-004   3.5043654987657735E-004  0.64329999999999998        5.0127656481048711E-005   4.8192195343665370E-022   6.5040288487901536E-007
 abs          26           1   9.6509834961602068E-003   7.7359000293202576E-003   3.8007352191586226E-003   6.3000000000000000E-003   3.3428294944009914E-003   1.0702149192550966E-020   8.1540017592154694E-006
 abs          26           2   7.4622339556142392E-003   5.9279059099484775E-003   2.9006919709728212E-003   5.1000000000000004E-003   2.3556521306648073E-003   1.3624754837061181E-020   6.5818249494320935E-006
 abs          26           3   9.9652228246562297E-003   4.6132500244335482E-003   2.2506126826321855E-003   8.3000000000000001E-003   1.6600000000000000E-003   1.4465953489903775E-020   5.2228246562295161E-006
 abs          26           4   1.3074045759264682E-002   3.7159147308908082E-003   1.8006270986941192E-003   1.1900000000000001E-002   1.1697822289330642E-003   1.2203962275311046E-020   4.2635303316159318E-006
 abs          26           5   2.2327769075623605E-002   3.0105853179762882E-003   1.4505982665702515E-003   2.1499999999999998E-002   8.2433160429373970E-004   8.8488411079505636E-021   3.4374713298653447E-006
 abs          26           6   4.1283667958240067E-002   2.4047229637703164E-003   1.1505665512339975E-003   4.0700000000000000E-002   5.8089666352451790E-004   5.6267018596514651E-021   2.7712947155503555E-006
 abs          26           7   5.5411607966512365E-002   1.9999264921472483E-003   9.5054060232251656E-004   5.5000000000000000E-002   4.0935096014306667E-004   3.7316014424398154E-021   2.2570063692991838E-006
 abs          26           8   8.5190308722996169E-002   1.6961959031070845E-003   8.0052041983580933E-004   8.4900000000000003E-002   2.8846474612773896E-004   2.2777905128932840E-021   1.8439768684238904E-006
 abs          26           9  0.19970476191239667        1.4924653140669206E-003   7.0050023734910202E-004  0.19950000000000001        2.0327767089994999E-004   2.0667580397621736E-021   1.4842414966937961E-006
 abs          26          10  0.28514444380678822        1.2890011956724825E-003   6.0048149646858807E-004  0.28499999999999998        1.4324735358895504E-004   2.2401957718295519E-021   1.1964531993097208E-006
 abs          26          11  0.35130191465710836        9.8420472404941463E-004   4.5045554755710734E-004  0.35120000000000001        1.0094470395786181E-004   2.3216046231884803E-021   9.6995315044262439E-007
 abs          26          12  0.45597192861312352        7.8207295888360661E-004   3.5044401470756030E-004  0.45590000000000003        7.1134530599286717E-005   6.7309724272988780E-021   7.9408252426346713E-007
 abs          26          13  0.64335076985073725        7.7967472307207265E-004   3.5043104025181990E-004  0.64329999999999998        5.0127656481048711E-005   8.2635428388496383E-022   6.4219425619964968E-007
 abs          27           1   9.6503466954048437E-003   7.7252866833746742E-003   3.8006778009570487E-003   6.3000000000000000E-003   3.3428294944015538E-003   1.0326187212487359E-015   7.5172010022577943E-006
 abs          27           2   7.4617199367042900E-003   5.9179168784702935E-003   2.9006379303125164E-003   5.1000000000000004E-003   2.3556521306652037E-003   1.3146165449704016E-015   6.0678060377701803E-006
 abs          27           3   9.9648149392057364E-003   4.6044055694792639E-003   2.2505648341308747E-003   8.3000000000000001E-003   1.6600000000002793E-003   1.3957824410039958E-015   4.8149392040605482E-006
 abs          27           4   1.3073712791549999E-002   3.7068621711140119E-003   1.8005781243457190E-003   1.1900000000000001E-002   1.1697822289332611E-003   1.1775251479959572E-015   3.9305626155596318E-006
 abs          27           5   2.2327500620403527E-002   3.0019489678446529E-003   1.4505515439160314E-003   2.1499999999999998E-002   8.2433160429387837E-004   8.5380068715531281E-016   3.1690161087949528E-006
 abs          27           6   4.1283451529225267E-002   2.3965444442483439E-003   1.1505223054433752E-003   4.0700000000000000E-002   5.8089666352461559E-004   5.4290362882893632E-016   2.5548657001137603E-006
 abs          27           7   5.5411431701728110E-002   1.9921225613059989E-003   9.5049838305665663E-004   5.5000000000000000E-002   4.0935096014313557E-004   3.6005396224034316E-016   2.0807415846118800E-006
 abs          27           8   8.5190164714459241E-002   1.6886833190174070E-003   8.0047977675587521E-004   8.4900000000000003E-002   2.8846474612778748E-004   2.1977803736843578E-016   1.6999683312295405E-006
 abs          27           9  0.19970464599801072        1.4852440767287598E-003   7.0046117045509371E-004  0.19950000000000001        2.0327767089998419E-004   1.9941499583637031E-016   1.3683271105416966E-006
 abs          27          10  0.28514435036772318        1.2820504946035524E-003   6.0044389317579633E-004  0.28499999999999998        1.4324735358897913E-004   2.1614980427915494E-016   1.1030141339914216E-006
 abs          27          11  0.35130183890695316        9.7762861166098849E-004   4.5041997078907719E-004  0.35120000000000001        1.0094470395787879E-004   2.2400540789665499E-016   8.9420299503981607E-007
 abs          27          12  0.45597186659788713        7.7566333035316020E-004   3.5040933861720197E-004  0.45590000000000003        7.1134530599298684E-005   6.4945067310908839E-016   7.3206728714798128E-007
 abs          27          13  0.64335071969747515        7.7345238888177010E-004   3.5039737742384208E-004  0.64329999999999998        5.0127656481057147E-005   7.9733211258243490E-017   5.9204099396866947E-007
 abs          28           1   9.6489514280328603E-003   7.7020250806123930E-003   3.8005519531129511E-003   6.3000000000000000E-003   3.3428296700737103E-003   3.2269367541278203E-010   6.1214352654749600E-006
 abs          28           2   7.4605938238086469E-003   5.8960236094094693E-003   2.9005194852795681E-003   5.1000000000000004E-003   2.3556522544592802E-003   4.1081808410004816E-010   4.9411585312820745E-006
 abs          28           3   9.9639214427393128E-003   4.5850210160327358E-003   2.2504599612850071E-003   8.3000000000000001E-003   1.6600000872364906E-003   4.3618245216163759E-010   3.9209193203695823E-006
 abs          28           4   1.3072983408850169E-002   3.6870214921626834E-003   1.8004707838517623E-003   1.1900000000000001E-002   1.1697822904075802E-003   3.6797697938441322E-010   3.2007504656078225E-006
 abs          28           5   2.2326912519489980E-002   2.9830205825348267E-003   1.4504491388617870E-003   2.1499999999999998E-002   8.2433164761409894E-004   2.6681298348171184E-010   2.5806050628963068E-006
 abs          28           6   4.1282977351512061E-002   2.3786195771916419E-003   1.1504253293174390E-003   4.0700000000000000E-002   5.8089669405185908E-004   1.6965755489039139E-010   2.0804878026450844E-006
 abs          28           7   5.5411045491450026E-002   1.9750187827251970E-003   9.5040584886088553E-004   5.5000000000000000E-002   4.0935098165532040E-004   1.1251697653816226E-010   1.6943972777311411E-006
 abs          28           8   8.5189849154544250E-002   1.6722181332186590E-003   8.0039069729615690E-004   8.4900000000000003E-002   2.8846476128716796E-004   6.8680705856511767E-011   1.3843245763753832E-006
 abs          28           9  0.19970439200515575        1.4694174664523240E-003   7.0037554569644239E-004  0.19950000000000001        2.0327768158261904E-004   6.2317248964637673E-011   1.1142612558397231E-006
 abs          28          10  0.28514414563926316        1.2668168363598922E-003   6.0036147632337841E-004  0.28499999999999998        1.4324736111690468E-004   6.7546881871408090E-011   8.9821059941119516E-007
 abs          28          11  0.35130167294999542        9.6321597353865053E-004   4.5034199568012710E-004  0.35120000000000001        1.0094470926271827E-004   7.0001760476766948E-011   7.2817073092577947E-007
 abs          28          12  0.45597173087706533        7.6161558310114841E-004   3.5033333761117327E-004  0.45590000000000003        7.1134534337555878E-005   2.0295353976175537E-010   5.9613977421945678E-007
 abs          28          13  0.64335060979707093        7.5981511792072381E-004   3.5032359719407993E-004  0.64329999999999998        5.0127659115362471E-005   2.4916653617058015E-011   4.8211303888217823E-007
 abs          29           1   9.6472987725759549E-003   7.6744540223448897E-003   3.8004027840380520E-003   6.3000000000000000E-003   3.3428303288675154E-003   1.5328384228083552E-009   4.4669108700182978E-006
 abs          29           2   7.4592603138811395E-003   5.8700743935801679E-003   2.9003790908441120E-003   5.1000000000000004E-003   2.3556527187034281E-003   1.9514362249339054E-009   3.6056437414853579E-006
 abs          29           3   9.9628636448993568E-003   4.5620455673698887E-003   2.2503356550634466E-003   8.3000000000000001E-003   1.6600004143838124E-003   2.0719190622994698E-009   2.8611585964823086E-006
 abs          29           4   1.3072119908554128E-002   3.6635053758380873E-003   1.8003435525839927E-003   1.1900000000000001E-002   1.1697825209444014E-003   1.7479391264282752E-009   2.3356396705978031E-006
 abs          29           5   2.2326216186950108E-002   2.9605859614134388E-003   1.4503277582247182E-003   2.1499999999999998E-002   8.2433181007065105E-004   1.2673950381899220E-009   1.8831094844194786E-006
 abs          29           6   4.1282415780215409E-002   2.3573745829771702E-003   1.1503103841665014E-003   4.0700000000000000E-002   5.8089680853305650E-004   8.0589646279552370E-010   1.5181657858885719E-006
 abs          29           7   5.5410588026047002E-002   1.9547472249479190E-003   9.5029616940669971E-004   5.5000000000000000E-002   4.0935106232885672E-004   5.3446752142759135E-010   1.2364292506227119E-006
 abs          29           8   8.5189475308536086E-002   1.6527035742116797E-003   8.0028511301442895E-004   8.4900000000000003E-002   2.8846481813684814E-004   3.2624169846383991E-010   1.0101641575335498E-006
 abs          29           9  0.19970409111222001        1.4506598414868199E-003   7.0027405645596097E-004  0.19950000000000001        2.0327772164391156E-004   2.9601576765993138E-010   8.1309456032686012E-007
 abs          29          10  0.28514390314908700        1.2487620376432141E-003   6.0026378950691554E-004  0.28499999999999998        1.4324738934762041E-004   3.2085685746467006E-010   6.5543888256150843E-007
 abs          29          11  0.35130147641969867        9.4613435491377345E-004   4.5024957386025489E-004  0.35120000000000001        1.0094472915656739E-004   3.3251703128035095E-010   5.3135802506100013E-007
 abs          29          12  0.45597157052530296        7.4496646285686775E-004   3.5024325576996188E-004  0.45590000000000003        7.1134548356514412E-005   9.6405776752541896E-010   4.3501288864884076E-007
 abs          29          13  0.64335047959307623        7.4365246108166843E-004   3.5023614749314853E-004  0.64329999999999998        5.0127668994355575E-005   1.1835659965718003E-010   3.5180572538379405E-007
 abs          30           1   9.6448207069591511E-003   7.6331775630163468E-003   3.8001794872627921E-003   6.3000000000000000E-003   3.3428297233221741E-003   4.2051324011066166E-010   1.9905631237353896E-006
 abs          30           2   7.4572595890633397E-003   5.8312259470464914E-003   2.9001689291843491E-003   5.1000000000000004E-003   2.3556522919828383E-003   5.3534336748664165E-010   1.6067617371328144E-006
 abs          30           3   9.9612756832898816E-003   4.5276481197248745E-003   2.2501495731849300E-003   8.3000000000000001E-003   1.6600001136788953E-003   5.6839447556499209E-010   1.2750012165102497E-006
 abs          30           4   1.3070823605882600E-002   3.6282986397884699E-003   1.8001530924866001E-003   1.1900000000000001E-002   1.1697823090412278E-003   4.7952177082287859E-010   1.0408173196002038E-006
 abs          30           5   2.2325171167398104E-002   2.9269976552225231E-003   1.4501460540703166E-003   2.1499999999999998E-002   8.2433166074500838E-004   3.4768916993002351E-010   8.3915896392766429E-007
 abs          30           6   4.1281573455649749E-002   2.3255665660162467E-003   1.1501383117402824E-003   4.0700000000000000E-002   5.8089670330505462E-004   2.2108695382917324E-010   6.7653125774013240E-007
 abs          30           7   5.5409902117464140E-002   1.9243957114506416E-003   9.5013197721052517E-004   5.5000000000000000E-002   4.0935098817593708E-004   1.4661963496129359E-010   5.5098266856335793E-007
 abs          30           8   8.5188915008871685E-002   1.6234850056269430E-003   8.0012705022566985E-004   8.4900000000000003E-002   2.8846476588216882E-004   8.9498778854020071E-011   4.5015349072708816E-007
 abs          30           9  0.19970364010055849        1.4225742773078778E-003   7.0012212319520866E-004  0.19950000000000001        2.0327768482066144E-004   8.1208442415126253E-011   3.6233452938582092E-007
 abs          30          10  0.28514353953078175        1.2217285867347448E-003   6.0011754805577204E-004  0.28499999999999998        1.4324736339871462E-004   8.8022777777307093E-011   2.9207936031280722E-007
 abs          30          11  0.35130118158803142        9.2055764308474823E-004   4.5011121328269321E-004  0.35120000000000001        1.0094471087068254E-004   9.1220517791700630E-011   2.3678594020904634E-007
 abs          30          12  0.45597132865217399        7.2003721461548953E-004   3.5010839782110496E-004  0.45590000000000003        7.1134535470669162E-005   2.6447749134267878E-010   1.9385222577553794E-007
 abs          30          13  0.64335028446549092        7.1945169878489341E-004   3.5010523031016051E-004  0.64329999999999998        5.0127659913853898E-005   3.2468404202723080E-011   1.5677310876478069E-007
 abs          31           1   9.6448138214275357E-003   7.6330628053320332E-003   3.8001788664241169E-003   6.3000000000000000E-003   3.3428297232954182E-003   4.2045992246916026E-010   1.9836776721952081E-006
 abs          31           2   7.4572540311165841E-003   5.8311179398102524E-003   2.9001683448655847E-003   5.1000000000000004E-003   2.3556522919639840E-003   5.3527994519621427E-010   1.6012038726543019E-006
 abs          31           3   9.9612712729209400E-003   4.5275524883002802E-003   2.2501490558193061E-003   8.3000000000000001E-003   1.6600001136656086E-003   5.6832804318477440E-010   1.2705909272884340E-006
 abs          31           4   1.3070820005577308E-002   3.6282007582145726E-003   1.8001525629476732E-003   1.1900000000000001E-002   1.1697823090318648E-003   4.7946194045866863E-010   1.0372170835007625E-006
 abs          31           5   2.2325168264659353E-002   2.9269042739367896E-003   1.4501455488779660E-003   2.1499999999999998E-002   8.2433166073841047E-004   3.4764737259948446E-010   8.3625627357248980E-007
 abs          31           6   4.1281571115463406E-002   2.3254781350428876E-003   1.1501378333291527E-003   4.0700000000000000E-002   5.8089670330040513E-004   2.2105872136660685E-010   6.7419110427549562E-007
 abs          31           7   5.5409900211570197E-002   1.9243113307271162E-003   9.5013152071128670E-004   5.5000000000000000E-002   4.0935098817266067E-004   1.4660395522919009E-010   5.4907679357821619E-007
 abs          31           8   8.5188913451756720E-002   1.6234037751017567E-003   8.0012661076902527E-004   8.4900000000000003E-002   2.8846476587985996E-004   8.9488236192222928E-011   4.4859638861407978E-007
 abs          31           9  0.19970363884721398        1.4224961969858932E-003   7.0012170078117186E-004  0.19950000000000001        2.0327768481903443E-004   8.1197753290237078E-011   3.6108119719370294E-007
 abs          31          10  0.28514353852045310        1.2216534316058687E-003   6.0011714146702695E-004  0.28499999999999998        1.4324736339756805E-004   8.8011554524578306E-011   2.9106904405740146E-007
 abs          31          11  0.35130118076896599        9.2048653822206998E-004   4.5011082860588680E-004  0.35120000000000001        1.0094471086987459E-004   9.1209627479864572E-011   2.3596688649642345E-007
 abs          31          12  0.45597132798159490        7.1996790987092032E-004   3.5010802288293737E-004  0.45590000000000003        7.1134535470099793E-005   2.6444296410593547E-010   1.9318168180201698E-007
 abs          31          13  0.64335028392320159        7.1938441917843534E-004   3.5010486632797676E-004  0.64329999999999998        5.0127659913452676E-005   3.2465053353132941E-011   1.5623082320230234E-007
 abs          32           1   9.6432950377962397E-003   7.6077590562578521E-003   3.8000419764942436E-003   6.3000000000000000E-003   3.3428294944084845E-003   1.4946567852820020E-014   4.6554337280898267E-007
 abs          32           2   7.4560279124299567E-003   5.8073026411849769E-003   2.9000395072887029E-003   5.1000000000000004E-003   2.3556521306700878E-003   1.7765242554533514E-014   3.7578174210398268E-007
 abs          32           3   9.9602981912022947E-003   4.5064658802207698E-003   2.2500349804118868E-003   8.3000000000000001E-003   1.6600000000037210E-003   1.8605361492666523E-014   2.9819117996915232E-007
 abs          32           4   1.3070025650323860E-002   3.6066180185783869E-003   1.8000358034804004E-003   1.1900000000000001E-002   1.1697822289356865E-003   1.6769245035803510E-014   2.4342137140338964E-007
 abs          32           5   2.2324527862787987E-002   2.9063137418660909E-003   1.4500341573433818E-003   2.1499999999999998E-002   8.2433160429558751E-004   1.1709901755855188E-014   1.9625848069398289E-007
 abs          32           6   4.1281054887425152E-002   2.3059790374838737E-003   1.1500323465926654E-003   4.0700000000000000E-002   5.8089666352582003E-004   7.9150523974422040E-015   1.5822389141220327E-007
 abs          32           7   5.5409479821336850E-002   1.9057051884454914E-003   9.5003086506935668E-004   5.5000000000000000E-002   4.0935096014398429E-004   4.3863836985486350E-015   1.2886118848666940E-007
 abs          32           8   8.5188570025874474E-002   1.6054921947478479E-003   8.0002971277344655E-004   8.4900000000000003E-002   2.8846474612838558E-004   2.9529068184789948E-015   1.0527974313196602E-007
 abs          32           9  0.19970336241196832        1.4052792010488349E-003   7.0002856047753244E-004  0.19950000000000001        2.0327767090040565E-004   2.9977199103140965E-015   8.4741064919805013E-008
 abs          32          10  0.28514331566371476        1.2050814211842177E-003   6.0002749048846565E-004  0.28499999999999998        1.4324735358927612E-004   3.1464180106132994E-015   6.8310122350076216E-008
 abs          32          11  0.35130100008232318        9.0480757214123249E-004   4.5002600896514353E-004  0.35120000000000001        1.0094470395808808E-004   3.0507693298908546E-015   5.5378361994271137E-008
 abs          32          12  0.45597117986783953        7.0468586145552175E-004   3.5002535051033388E-004  0.45590000000000003        7.1134530599446176E-005   9.6821574235757527E-015   4.5337230423881311E-008
 abs          32          13  0.64335016432182612        7.0454893693262582E-004   3.5002460974866871E-004  0.64329999999999998        5.0127656481161075E-005   9.3694441975538842E-016   3.6665344067635563E-008
 abs          33           1   9.6430003806950906E-003   7.6028481049016609E-003   3.8000154082475182E-003   6.3000000000000000E-003   3.3428294944009914E-003   1.2946042667365115E-020   1.7088629409963330E-007
 abs          33           2   7.4557900682943583E-003   5.8026805693192091E-003   2.9000145018800165E-003   5.1000000000000004E-003   2.3556521306648073E-003   1.5913040154887675E-020   1.3793762955101119E-007
 abs          33           3   9.9601094565805338E-003   4.5023734207513839E-003   2.2500128402062648E-003   8.3000000000000001E-003   1.6600000000000000E-003   1.6779991821725345E-020   1.0945658053440566E-007
 abs          33           4   1.3069871581243706E-002   3.6024292659455337E-003   1.8000131423287654E-003   1.1900000000000001E-002   1.1697822289330642E-003   1.4639095667609924E-020   8.9352310640331144E-008
 abs          33           5   2.2324403644594194E-002   2.9023175755572336E-003   1.4500125380837645E-003   2.1499999999999998E-002   8.2433160429373970E-004   1.0412388293141251E-020   7.2040300453766990E-008
 abs          33           6   4.1280954742526431E-002   2.3021947161301032E-003   1.1500118734142639E-003   4.0700000000000000E-002   5.8089666352451790E-004   6.8320127395670739E-021   5.8079001916215240E-008
 abs          33           7   5.5409398261022508E-002   1.9020941947806328E-003   9.5001132959376326E-004   5.5000000000000000E-002   4.0935096014306667E-004   4.1426630609767770E-021   4.7300879445225298E-008
 abs          33           8   8.5188503391002104E-002   1.6020160115088225E-003   8.0001090662226281E-004   8.4900000000000003E-002   2.8846474612773896E-004   2.6526551585099164E-021   3.8644874351943221E-008
 abs          33           9  0.19970330877667311        1.4019378282370122E-003   7.0001048365076228E-004  0.19950000000000001        2.0327767089994999E-004   2.5501754644137632E-021   3.1105773141665279E-008
 abs          33          10  0.28514327242808107        1.2018652294846167E-003   6.0001009089151176E-004  0.28499999999999998        1.4324735358895504E-004   2.7178898110550464E-021   2.5074492173442928E-008
 abs          33          11  0.35130096503160857        9.0176470813514654E-004   4.5000954707101113E-004  0.35120000000000001        1.0094470395786181E-004   2.7221587379748776E-021   2.0327650670675334E-008
 abs          33          12  0.45597115117246717        7.0172003197982642E-004   3.5000930537301087E-004  0.45590000000000003        7.1134530599286717E-005   8.2690161225677887E-021   1.6641867856761675E-008
 abs          33          13  0.64335014111517286        7.0166977130509123E-004   3.5000903346276053E-004  0.64329999999999998        5.0127656481048711E-005   9.0189782186514574E-022   1.3458691790199878E-008
 abs          34           1   9.6429022656556208E-003   7.6012128542438323E-003   3.8000065615414590E-003   6.3000000000000000E-003   3.3428294944009914E-003   6.2413802389866214E-021   7.2771254629962191E-008
 abs          34           2   7.4557108708605381E-003   5.8011415098765482E-003   2.9000061755684319E-003   5.1000000000000004E-003   2.3556521306648073E-003   7.9457884902195191E-021   5.8740195730721111E-008
 abs          34           3   9.9600466116532924E-003   4.5010107118698605E-003   2.2500054679512158E-003   8.3000000000000001E-003   1.6600000000000000E-003   8.4363601686929750E-021   4.6611653292394085E-008
 abs          34           4   1.3069820279262285E-002   3.6010344933256220E-003   1.8000055966088916E-003   1.1900000000000001E-002   1.1697822289330642E-003   7.1172164280497522E-021   3.8050329218280889E-008
 abs          34           5   2.2324362282371672E-002   2.9009869304140990E-003   1.4500053392935402E-003   2.1499999999999998E-002   8.2433160429373970E-004   5.1605380081890728E-021   3.0678077932238969E-008
 abs          34           6   4.1280921396238512E-002   2.3009346112114241E-003   1.1500050562466538E-003   4.0700000000000000E-002   5.8089666352451790E-004   3.2814341252261071E-021   2.4732713991882578E-008
 abs          34           7   5.5409371103036092E-002   1.9008918045910535E-003   9.5000482466283764E-004   5.5000000000000000E-002   4.0935096014306667E-004   2.1762145241707189E-021   2.0142893029927447E-008
 abs          34           8   8.5188481202895142E-002   1.6008585105529876E-003   8.0000464454209168E-004   8.4900000000000003E-002   2.8846474612773896E-004   1.3283789211582121E-021   1.6456767386906484E-008
 abs          34           9  0.19970329091717082        1.4008252165149215E-003   7.0000446442134573E-004  0.19950000000000001        2.0327767089994999E-004   1.2053135888007896E-021   1.3246270859114033E-008
 abs          34          10  0.28514325803146257        1.2007943006224315E-003   6.0000429716636726E-004  0.28499999999999998        1.4324735358895504E-004   1.3064588292426210E-021   1.0677873636880075E-008
 abs          34          11  0.35130095336040779        9.0075149400206103E-004   4.5000406558255116E-004  0.35120000000000001        1.0094470395786181E-004   1.3539315570363615E-021   8.6564498971589003E-009
 abs          34          12  0.45597114161747310        7.0073246883745185E-004   3.5000396265641063E-004  0.45590000000000003        7.1134530599286717E-005   3.9254373975470325E-021   7.0868738169048142E-009
 abs          34          13  0.64335013338781188        7.0071106552726658E-004   3.5000384686450250E-004  0.64329999999999998        5.0127656481048711E-005   4.8191687568944365E-022   5.7313308385035582E-009
 abs          35           1   9.6428654453394463E-003   7.6005991823076009E-003   3.8000032415762843E-003   6.3000000000000000E-003   3.3428294944009914E-003   6.2413785651628364E-021   3.5950938456062248E-008
 abs          35           2   7.4556811498863711E-003   5.8005639362895068E-003   2.9000030508953261E-003   5.1000000000000004E-003   2.3556521306648073E-003   7.9457865013879023E-021   2.9019221564207105E-008
 abs          35           3   9.9600230273984881E-003   4.5004993185896675E-003   2.2500027013135698E-003   8.3000000000000001E-003   1.6600000000000000E-003   8.4363580859504186E-021   2.3027398488196733E-008
 abs          35           4   1.3069801026809382E-002   3.6005110672623656E-003   1.8000027648738893E-003   1.1900000000000001E-002   1.1697822289330642E-003   7.1172145502503800E-021   1.8797876316895292E-008
 abs          35           5   2.2324346760081520E-002   2.9004875699169693E-003   1.4500026377532507E-003   2.1499999999999998E-002   8.2433160429373970E-004   5.1605366971627639E-021   1.5155787780496830E-008
 abs          35           6   4.1280908882144127E-002   2.3004617228370339E-003   1.1500024979205483E-003   4.0700000000000000E-002   5.8089666352451790E-004   3.2814332388126801E-021   1.2218619605981940E-008
 abs          35           7   5.5409360911268843E-002   1.9004405752261772E-003   9.5000238351197362E-004   5.5000000000000000E-002   4.0935096014306667E-004   2.1762140333750991E-021   9.9511257752564451E-009
 abs          35           8   8.5188472876209259E-002   1.6004241270844001E-003   8.0000229452752668E-004   8.4900000000000003E-002   2.8846474612773896E-004   1.3283785905875670E-021   8.1300815070572140E-009
 abs          35           9  0.19970328421491065        1.4004076789426226E-003   7.0000220554307954E-004  0.19950000000000001        2.0327767089994999E-004   1.2053132530375681E-021   6.5440106928191730E-009
 abs          35          10  0.28514325262874296        1.2003924056681150E-003   6.0000212291466443E-004  0.28499999999999998        1.4324735358895504E-004   1.3064584768750714E-021   5.2751540414287416E-009
 abs          35          11  0.35130094898047476        9.0037125805725868E-004   4.5000200850608973E-004  0.35120000000000001        1.0094470395786181E-004   1.3539312154875685E-021   4.2765168620936782E-009
 abs          35          12  0.45597113803170375        7.0036185911910023E-004   3.5000195765783434E-004  0.45590000000000003        7.1134530599286717E-005   3.9254363131252173E-021   3.5011044640217478E-009
 abs          35          13  0.64335013048791112        7.0035128531367198E-004   3.5000190045354697E-004  0.64329999999999998        5.0127656481048711E-005   4.8191677087502124E-022   2.8314301202323531E-009
 ed   5.1497173666954037        6.6271289136674669        8.0762863781717087        8.5107749316427448        8.5193572454982345        8.3551432185702854        8.4518083479669350        8.3214161356290184        7.8922420647409233        7.8283224357499019        7.3984347913000317        6.7462352249357433        3.3248014416959553     
 es   3.8714932408597731        4.4523268924819099        5.0461345036824543        4.9438894602987498        4.6609512991375386        4.3348442998197338        4.2105758004718359        4.0414000471433003        3.7303559044996897        3.6350070297718049        3.4207013838820988        3.0618293139669630        1.5064399298694400     
 PAR   39.581382984435763        52.377357063554449        61.992585498324225        63.759431367896767        60.015638243387762        52.955544849077604        50.524591337506763        42.904965796258296        21.043941112056785        12.921657992603874        8.5201246490772391        4.2720894042907913       0.70641057725102929     
 chl2c           1   3.7477407714772232E-002   3.7477407714772232E-002  0.60826437499999997        4.3796247441076129E-004   1.4245342160625181E-016
 chl           1   3.1319169657328662E-005   8.3568132288359379E-004   3.7477407714772232E-002
 chl2c           2   3.2640259920490348E-002   3.2640259920490348E-002  0.48302390000000001        2.4755781539288172E-004   1.7883820818100185E-006
 chl           2   2.7742289265459814E-005   8.4994081949832238E-004   3.2640259920490348E-002
 chl2c           3   3.7922212503796585E-002   3.7922212503796585E-002  0.75128689999999998        4.3796247441076129E-004   1.5361074210998792E-016
 chl           3   3.1690884711848062E-005   8.3568132288366155E-004   3.7922212503796585E-002
 chl2c           4   3.7976509103863923E-002   3.7976509103863923E-002  0.77318742499999993        4.3796247441076129E-004   2.2283227084154939E-006
 chl           4   3.2247706821172302E-005   8.4914879176957458E-004   3.7976509103863923E-002
 chl2c           5   2.5710500362372445E-002   2.5710500362372445E-002  0.48489679999999996        3.3548550393374386E-004   2.8204755555455751E-006
 chl           5   2.1997333259340327E-005   8.5557779698187540E-004   2.5710500362372445E-002
 chl2c           6   3.1261039902252048E-002   3.1261039902252048E-002  0.29222855000000003        2.4755781539288172E-004   1.0230966204662489E-016
 chl           6   2.6233858364543026E-005   8.3918700230612407E-004   3.1261039902252048E-002
 chl2c           7   4.3064391842467263E-002   4.3064391842467263E-002  0.22770740000000000        1.5468726066932573E-004   1.3079937155437972E-006
 chl           7   3.6477725061019894E-005   8.4705074193217717E-004   4.3064391842467263E-002
 chl2c           8   4.7969800906495587E-002   4.7969800906495587E-002  0.49578364999999996        1.5468726066932573E-004   7.3610965071217981E-017
 chl           8   4.0255633423935286E-005   8.3918700230595016E-004   4.7969800906495587E-002
 chl2c           9   2.4803669054600401E-002   2.4803669054600401E-002  0.28700202499999999        3.3548550393374386E-004   1.3654196359885074E-016
 chl           9   2.0814918697430627E-005   8.3918708363712948E-004   2.4803669054600401E-002
 chl2c          10   2.5387016219684602E-002   2.5387016219684602E-002  0.39094662499999999        3.3548550393374386E-004   3.4250102525966629E-006
 chl          10   2.1790955073337436E-005   8.5835038213120734E-004   2.5387016219684602E-002
 chl2c          11   2.1820572217820047E-002   2.1820572217820047E-002  0.49737575000000001        4.3796247441076129E-004   1.4145022690131849E-016
 chl          11   1.8311540588081892E-005   8.3918700230636205E-004   2.1820572217820047E-002
 chl2c          12   4.5290941298723353E-002   4.5290941298723353E-002  0.30768942500000002        1.5468726066932573E-004   7.2984986186192968E-017
 chl          12   3.8007569260090242E-005   8.3918700230594648E-004   4.5290941298723353E-002
 chl2c          13   3.7935816987997487E-002   3.7935816987997487E-002  0.75666275000000005        4.3796247441076129E-004   1.2776799992749675E-016
 chl          13   3.1702253720277104E-005   8.3568132275383387E-004   3.7935816987997487E-002
 chl2c          14   4.6856526101924839E-002   4.6856526101924839E-002  0.39804095000000000        1.5468726066932573E-004   8.1054586883622095E-017
 chl          14   3.9321387677946933E-005   8.3918700230599537E-004   4.6856526101924839E-002
 chl2c          15   2.0954299823745293E-002   2.0954299823745293E-002  0.25607262500000000        4.3796247441076129E-004   3.9271278377682709E-006
 chl          15   1.8038568440724517E-005   8.6085283652777148E-004   2.0954299823745293E-002
 chl2c          16   3.7823443882273475E-002   3.7823443882273475E-002  0.71433214999999994        4.3796247441076129E-004   1.5990613424843681E-016
 chl          16   3.1608345619555673E-005   8.3568132288369961E-004   3.7823443882273475E-002
 chl2c          17   3.7542254757581245E-002   3.7542254757581245E-002  0.62580860000000005        4.3796247441076129E-004   1.5982619948739845E-016
 chl          17   3.1373361119852336E-005   8.3568132288369906E-004   3.7542254757581245E-002
 chl2c          18   2.5694475239060960E-002   2.5694475239060960E-002  0.47925950000000000        3.3548550393374386E-004   1.4765447516913728E-016
 chl          18   2.1562469651703583E-005   8.3918700230639978E-004   2.5694475239060960E-002
 chl2c          19   3.7570220750293731E-002   3.7570220750293731E-002  0.63367130000000005        4.3796247441076129E-004   7.9403681395143777E-007
 chl          19   3.1575680051108242E-005   8.4044435780594609E-004   3.7570220750293731E-002
 chl2c          20   3.7020645196759419E-002   3.7020645196759419E-002  0.50678202500000002        4.3796247441076129E-004   1.4067578344296766E-016
 chl          20   3.0937461747231175E-005   8.3568132275391204E-004   3.7020645196759419E-002
 chl2c          21   3.7838475073783531E-002   3.7838475073783531E-002  0.71973185000000006        4.3796247441076129E-004   2.2420671198227630E-008
 chl          21   3.1624814014758954E-005   8.3578458045922344E-004   3.7838475073783531E-002
 chl2c          22   3.7613353106285476E-002   3.7613353106285476E-002  0.64616892500000001        4.3796247441076129E-004   3.4900351433994655E-006
 chl          22   3.2224500733178502E-005   8.5673033834873769E-004   3.7613353106285476E-002
 chl2c          23   3.2286562315070731E-002   3.2286562315070731E-002  0.41564179999999995        2.4755781539288172E-004   9.6491660086328920E-017
 chl          23   2.7094463443952937E-005   8.3918700230608872E-004   3.2286562315070731E-002
 chl2c          24   3.7348402796863071E-002   3.7348402796863071E-002  0.57597492500000003        4.3796247441076129E-004   1.1422623590066835E-016
 chl          24   3.1211362652022470E-005   8.3568132275375212E-004   3.7348402796863071E-002
 chl2c          25   4.5426679235459781E-002   4.5426679235459781E-002  0.31406487500000002        1.5468726066932573E-004   7.6691664978286619E-017
 chl          25   3.8121478772320295E-005   8.3918700230596892E-004   4.5426679235459781E-002
 chl2c          26   4.7955660680174553E-002   4.7955660680174553E-002  0.49427735000000000        1.5468726066932573E-004   7.0507470432218318E-017
 chl          26   4.0243767129796102E-005   8.3918700230593130E-004   4.7955660680174553E-002
 chl2c          27   4.5333133499525620E-002   4.5333133499525620E-002  0.30964730000000001        1.5468726066932573E-004   8.0439510430083831E-017
 chl          27   3.8042976406604230E-005   8.3918700230599158E-004   4.5333133499525620E-002
 chl2c          28   3.1209236063453518E-002   3.1209236063453518E-002  0.28776342500000002        2.4755781539288172E-004   8.0000925061265156E-017
 chl          28   2.6190385256349522E-005   8.3918700230598898E-004   3.1209236063453518E-002
 chl2c          29   3.7743217595736761E-002   3.7743217595736761E-002  0.68676297499999994        4.3796247441076129E-004   3.3974143052057256E-006
 chl          29   3.2316551960984182E-005   8.5622143578544451E-004   3.7743217595736761E-002
 chl2c          30   2.5380056985171612E-002   2.5380056985171612E-002  0.38930277499999999        3.3548550393374386E-004   1.6186790151386274E-016
 chl          30   2.1298613939753953E-005   8.3918700230648587E-004   2.5380056985171612E-002
 chl2c          31   3.7576959810037038E-002   3.7576959810037038E-002  0.63559385000000002        4.3796247441076129E-004   3.6229421131265957E-006
 chl          31   3.2223449473174405E-005   8.5753210573909504E-004   3.7576959810037038E-002
 chl2c          32   2.0893126428578448E-002   2.0893126428578448E-002  0.24722667500000001        4.3796247441076129E-004   3.3660235749105513E-006
 chl          32   1.7933086744020762E-005   8.5832471293004631E-004   2.0893126428578448E-002
 chl2c          33   3.7458922634011876E-002   3.7458922634011876E-002  0.60343137499999999        4.3796247441076129E-004   1.1071812919115376E-006
 chl          33   3.1553243406859570E-005   8.4234252317256771E-004   3.7458922634011876E-002
 chl2c          34   2.5350269098008315E-002   2.5350269098008315E-002  0.38241020000000003        3.3548550393374386E-004   2.7353351643423444E-006
 chl          34   2.1677599784102822E-005   8.5512306399169384E-004   2.5350269098008315E-002
 chl2c          35   2.5740370148566064E-002   2.5740370148566064E-002  0.49574644999999995        3.3548550393374386E-004   1.1687539730106292E-016
 chl          35   2.1600984063227491E-005   8.3918700230621319E-004   2.5740370148566064E-002
 chl2c          36   3.7770393924465726E-002   3.7770393924465726E-002  0.69587337500000002        4.3796247441076129E-004   1.2171513427580759E-016
 chl          36   3.1564012760627236E-005   8.3568132288346835E-004   3.7770393924465726E-002
 chl2c          37   2.1353674699533250E-002   2.1353674699533250E-002  0.33194060000000003        4.3796247441076129E-004   1.0701053048876140E-016
 chl          37   1.7919726259322059E-005   8.3918700230615334E-004   2.1353674699533250E-002
 chl2c          38   2.1543295686358745E-002   2.1543295686358745E-002  0.38455722500000000        4.3796247441076129E-004   1.6522666756164540E-016
 chl          38   1.8078853726838086E-005   8.3918700230650647E-004   2.1543295686358745E-002
 chl2c          39   2.5670077108751441E-002   2.5670077108751441E-002  0.47091117500000002        3.3548550393374386E-004   1.3299873483910763E-016
 chl          39   2.1541995057864976E-005   8.3918700230631099E-004   2.5670077108751441E-002
 chl2c          40   3.7687445774703773E-002   3.7687445774703773E-002  0.66875547499999999        4.3796247441076129E-004   1.6021476361407483E-016
 chl          40   3.1494694541112211E-005   8.3568132288370145E-004   3.7687445774703773E-002
 chl2c          41   2.5582381488167241E-002   2.5582381488167241E-002  0.44304987499999998        3.3548550393374386E-004   9.6359138431401017E-017
 chl          41   2.1468402032905846E-005   8.3918700230608883E-004   2.5582381488167241E-002
 chl2c          42   3.7949995630725070E-002   3.7949995630725070E-002  0.76234377499999995        4.3796247441076129E-004   1.3514810847198279E-016
 chl          42   3.1714102547188238E-005   8.3568132275387854E-004   3.7949995630725070E-002
 chl2c          43   2.1185090152268007E-002   2.1185090152268007E-002  0.29539925000000000        4.3796247441076129E-004   1.6451872442843792E-016
 chl          43   1.7778252298474787E-005   8.3918700230650213E-004   2.1185090152268007E-002
 chl2c          44   3.7536352708156646E-002   3.7536352708156646E-002  0.62417262500000004        4.3796247441076129E-004   1.1546067614009524E-016
 chl          44   3.1368428882504010E-005   8.3568132275375960E-004   3.7536352708156646E-002
 chl2c          45   4.6544927192009838E-002   4.6544927192009838E-002  0.37662252499999999        1.5468726066932573E-004   1.8765190762631730E-006
 chl          45   3.9580998154928154E-005   8.5038264195035301E-004   4.6544927192009838E-002
 chl2c          46   3.7083195475449568E-002   3.7083195475449568E-002  0.51876034999999998        4.3796247441076129E-004   3.6419363905824511E-006
 chl          46   3.1803421327756104E-005   8.5762353864059888E-004   3.7083195475449568E-002
 chl2c          47   3.7519784612651236E-002   3.7519784612651236E-002  0.61962282499999999        4.3796247441076129E-004   1.4744384227590242E-016
 chl          47   3.1354583234543802E-005   8.3568132275395313E-004   3.7519784612651236E-002
 chl2c          48   3.7823212136301673E-002   3.7823212136301673E-002  0.71424949999999998        4.3796247441076129E-004   1.4180055021038953E-016
 chl          48   3.1608151948866656E-005   8.3568132275391876E-004   3.7823212136301673E-002
 chl2c          49   3.7152990741888416E-002   3.7152990741888416E-002  0.53276120000000005        4.3796247441076129E-004   1.3196487819520301E-016
 chl          49   3.1048060447443198E-005   8.3568132275385935E-004   3.7152990741888416E-002
 chl2c          50   2.1533072915600981E-002   2.1533072915600981E-002  0.38132569999999999        4.3796247441076129E-004   1.3824894463082755E-006
 chl          50   1.8249445647364955E-005   8.4750772539032295E-004   2.1533072915600981E-002
 chl2c          51   2.0700971146093840E-002   2.0700971146093840E-002  0.22275920000000002        4.3796247441076129E-004   1.7560767900847765E-016
 chl          51   1.7371985920925277E-005   8.3918700230656935E-004   2.0700971146093840E-002
 chl2c          52   3.7581825176985564E-002   3.7581825176985564E-002  0.63698869999999996        4.3796247441076129E-004   1.5691498932673900E-016
 chl          52   3.1406429380286545E-005   8.3568132288368150E-004   3.7581825176985564E-002
 chl2c          53   3.7925801262726190E-002   3.7925801262726190E-002  0.75269794999999995        4.3796247441076129E-004   1.4052481333705620E-016
 chl          53   3.1693883770654853E-005   8.3568132288358219E-004   3.7925801262726190E-002
 chl2c          54   3.7082433371327092E-002   3.7082433371327092E-002  0.51861124999999997        4.3796247441076129E-004   1.1527521592978042E-016
 chl          54   3.0989096970678738E-005   8.3568132275375841E-004   3.7082433371327092E-002
 chl2c          55   3.7357235588660491E-002   3.7357235588660491E-002  0.57808280000000001        4.3796247441076129E-004   3.5703918583156905E-006
 chl          55   3.2022487122190118E-005   8.5719638023511310E-004   3.7357235588660491E-002
 chl2c          56   3.7507394187257688E-002   3.7507394187257688E-002  0.61626080000000005        4.3796247441076129E-004   1.5732960605919593E-016
 chl          56   3.1344228792327304E-005   8.3568132288368399E-004   3.7507394187257688E-002
 chl2c          57   3.7727617852646313E-002   3.7727617852646313E-002  0.68163462500000005        4.3796247441076129E-004   3.7846417912778520E-006
 chl          57   3.2388199421488087E-005   8.5847454106398866E-004   3.7727617852646313E-002
 chl2c          58   3.7765358178394853E-002   3.7765358178394853E-002  0.69416802499999997        4.3796247441076129E-004   5.1339007096269372E-007
 chl          58   3.1675162766755814E-005   8.3873592876121134E-004   3.7765358178394853E-002
 chl2c          59   3.7173699120809672E-002   3.7173699120809672E-002  0.53705127500000005        4.3796247441076129E-004   1.6003922157104901E-016
 chl          59   3.1065366052938525E-005   8.3568132275402935E-004   3.7173699120809672E-002
 chl2c          60   3.7607757740906807E-002   3.7607757740906807E-002  0.64452155000000000        4.3796247441076129E-004   1.2158355202132964E-007
 chl          60   3.1454566435354873E-005   8.3638505257496460E-004   3.7607757740906807E-002
 chl2c          61   3.7805373434125003E-002   3.7805373434125003E-002  0.70794139999999994        4.3796247441076129E-004   1.3753157599594185E-016
 chl          61   3.1593244478634467E-005   8.3568132275389296E-004   3.7805373434125003E-002
 chl2c          62   3.7956103087269030E-002   3.7956103087269030E-002  0.76481592499999995        4.3796247441076129E-004   1.1224658068526754E-016
 chl          62   3.1719206434546302E-005   8.3568132275374009E-004   3.7956103087269030E-002
 chl2c          63   3.7855601011927406E-002   3.7855601011927406E-002  0.72597904999999996        4.3796247441076129E-004   1.5767930014376196E-006
 chl          63   3.1995743532167281E-005   8.4520500736697261E-004   3.7855601011927406E-002
 chl2c          64   2.5708982294816416E-002   2.5708982294816416E-002  0.48435739999999999        3.3548550393374386E-004   9.3752478002686468E-017
 chl          64   2.1574643784326891E-005   8.3918700230607289E-004   2.5708982294816416E-002
 chl2c          65   3.7953597170552002E-002   3.7953597170552002E-002  0.76379975000000000        4.3796247441076129E-004   1.2402146941990687E-016
 chl          65   3.1717112291673682E-005   8.3568132288348222E-004   3.7953597170552002E-002
 chl2c          66   3.1840477731474713E-002   3.1840477731474713E-002  0.35213202499999996        2.4755781539288172E-004   7.6299512431885328E-017
 chl          66   2.6720115059466148E-005   8.3918700230596653E-004   3.1840477731474713E-002
 chl2c          67   3.7937587124568600E-002   3.7937587124568600E-002  0.75736760000000003        4.3796247441076129E-004   1.3121455550202364E-016
 chl          67   3.1703732990349099E-005   8.3568132275385479E-004   3.7937587124568600E-002
 chl2c          68   3.7855407263856986E-002   3.7855407263856986E-002  0.72590779999999999        4.3796247441076129E-004   2.3416952476579148E-007
 chl          68   3.1686911122266035E-005   8.3705112195476465E-004   3.7855407263856986E-002
 chl2c          69   2.1732330561541505E-002   2.1732330561541505E-002  0.45524217500000003        4.3796247441076129E-004   2.8338371641540893E-006
 chl          69   1.8599991301146671E-005   8.5586731015687930E-004   2.1732330561541505E-002
 chl2c          70   3.2658010878182209E-002   3.2658010878182209E-002  0.48694062500000002        2.4755781539288172E-004   9.6128674202470968E-017
 chl          70   2.7406178250141293E-005   8.3918700230608656E-004   3.2658010878182209E-002
 chl2c          71   4.3481058864416305E-002   4.3481058864416305E-002  0.23986107500000001        1.5468726066932573E-004   8.3952775357921816E-017
 chl          71   3.6488739445520806E-005   8.3918700230601283E-004   4.3481058864416305E-002
 chl2c          72   3.7549776402781669E-002   3.7549776402781669E-002  0.62790522500000001        4.3796247441076129E-004   1.5782590693127062E-016
 chl          72   3.1379646818263235E-005   8.3568132288368692E-004   3.7549776402781669E-002
 chl2c          73   3.1852614277819484E-002   3.1852614277819484E-002  0.35362212500000001        2.4755781539288172E-004   9.2550221096893295E-017
 chl          73   2.6730299891414690E-005   8.3918700230606476E-004   3.1852614277819484E-002
 chl2c          74   3.7616827685877569E-002   3.7616827685877569E-002  0.64719590000000005        4.3796247441076129E-004   1.1488321729013348E-007
 chl          74   3.1460417390187673E-005   8.3633892929250954E-004   3.7616827685877569E-002
 chl2c          75   3.7826830779512356E-002   3.7826830779512356E-002  0.71554212500000003        4.3796247441076129E-004   1.2444271805800474E-016
 chl          75   3.1611175986312606E-005   8.3568132288348483E-004   3.7826830779512356E-002
 chl2c          76   3.7257729557919804E-002   3.7257729557919804E-002  0.55513977500000000        4.3796247441076129E-004   3.3925253964616850E-006
 chl          76   3.1899245902838430E-005   8.5617793358150741E-004   3.7257729557919804E-002
 chl2c          77   3.7138172437479272E-002   3.7138172437479272E-002  0.52973029999999999        4.3796247441076129E-004   1.0935624952777249E-016
 chl          77   3.1035677067208516E-005   8.3568132275372252E-004   3.7138172437479272E-002
 chl2c          78   4.7515248899399322E-002   4.7515248899399322E-002  0.45117492500000000        1.5468726066932573E-004   2.4531451617921889E-006
 chl          78   4.0548519332932790E-005   8.5337907876234227E-004   4.7515248899399322E-002
 prod   4.0183792321856175E-007   471.57572087572123        10.000000000000000     
 chl2c           1   3.7477407714772232E-002   3.7477407714772232E-002  0.60826437499999997        3.3959796437269891E-004   1.5017666097476627E-016
 chl           1   3.1867312712190661E-005   8.5030728258266703E-004   3.7477407714772232E-002
 chl2c           2   3.2640259920490348E-002   3.2640259920490348E-002  0.48302390000000001        1.8989792373969223E-004   1.7724991029487240E-006
 chl           2   2.8101397291161331E-005   8.6094281600742749E-004   3.2640259920490348E-002
 chl2c           3   3.7922212503796585E-002   3.7922212503796585E-002  0.75128689999999998        3.3959796437269891E-004   1.6184484437972707E-016
 chl           3   3.2245533463628429E-005   8.5030728258273869E-004   3.7922212503796585E-002
 chl2c           4   3.7976509103863923E-002   3.7976509103863923E-002  0.77318742499999993        3.3959796437269891E-004   2.4789111391865120E-006
 chl           4   3.2869621821726285E-005   8.6552509952479977E-004   3.7976509103863923E-002
 chl2c           5   2.5710500362372445E-002   2.5710500362372445E-002  0.48489679999999996        2.2702521639382406E-004   2.9428002726683782E-006
 chl           5   2.2266197617760562E-005   8.6603517255336453E-004   2.5710500362372445E-002
 chl2c           6   3.1261039902252048E-002   3.1261039902252048E-002  0.29222855000000003        1.8989792373969223E-004   1.0219108224342991E-016
 chl           6   2.6583123516201183E-005   8.5035954015995905E-004   3.1261039902252048E-002
 chl2c           7   4.3064391842467263E-002   4.3064391842467263E-002  0.22770740000000000        1.2098157672315675E-004   1.3591541274927999E-006
 chl           7   3.6972560915110716E-005   8.5854134548931011E-004   4.3064391842467263E-002
 chl2c           8   4.7969800906495587E-002   4.7969800906495587E-002  0.49578364999999996        1.2098157672315675E-004   7.3513455782859231E-017
 chl           8   4.0791577840403933E-005   8.5035954015978308E-004   4.7969800906495587E-002
 chl2c           9   2.4803669054600401E-002   2.4803669054600401E-002  0.28700202499999999        2.2702521639382406E-004   2.4304238769823400E-008
 chl           9   2.1095771537021009E-005   8.5051011971587010E-004   2.4803669054600401E-002
 chl2c          10   2.9083428451024095E-002   2.5387016219684602E-002  0.39094662499999999        2.2702521639382406E-004   3.5666685881678058E-006
 chl          10   2.5271692323097098E-005   8.6893786836906510E-004   2.9083428451024095E-002
 chl2c          11   2.1820572217820047E-002   2.1820572217820047E-002  0.49737575000000001        3.3959796437269891E-004   1.4832566643292070E-016
 chl          11   1.8555331757178835E-005   8.5035954016024332E-004   2.1820572217820047E-002
 chl2c          12   4.5290941298723353E-002   4.5290941298723353E-002  0.30768942500000002        1.2098157672315675E-004   7.2888179539909814E-017
 chl          12   3.8513584016185945E-005   8.5035954015977918E-004   4.5290941298723353E-002
 chl2c          13   3.7935816987997487E-002   3.7935816987997487E-002  0.75666275000000005        3.3959796437269891E-004   1.3479878605948478E-016
 chl          13   3.2257101450608784E-005   8.5030728245063527E-004   3.7935816987997487E-002
 chl2c          14   4.6856526101924839E-002   4.6856526101924839E-002  0.39804095000000000        1.2098157672315675E-004   8.0956231802785529E-017
 chl          14   3.9844893989519816E-005   8.5035954015982873E-004   4.6856526101924839E-002
 chl2c          15   2.1997545253447673E-002   2.0954299823745293E-002  0.25607262500000000        3.3959796437269891E-004   4.0861779498891486E-006
 chl          15   1.9172351986688537E-005   8.7156779385116423E-004   2.1997545253447673E-002
 chl2c          16   3.7823443882273475E-002   3.7823443882273475E-002  0.71433214999999994        3.3959796437269891E-004   1.6842273701604417E-016
 chl          16   3.2161549785458200E-005   8.5030728258277913E-004   3.7823443882273475E-002
 chl2c          17   3.7542254757581245E-002   3.7542254757581245E-002  0.62580860000000005        3.3959796437269891E-004   1.6833924110480769E-016
 chl          17   3.1922452624949298E-005   8.5030728258277859E-004   3.7542254757581245E-002
 chl2c          18   2.5694475239060960E-002   2.5694475239060960E-002  0.47925950000000000        2.2702521639382406E-004   1.5474884920679574E-016
 chl          18   2.1849542148947657E-005   8.5035954016028301E-004   2.5694475239060960E-002
 chl2c          19   3.7570220750293731E-002   3.7570220750293731E-002  0.63367130000000005        3.3959796437269891E-004   9.4218210945836093E-007
 chl          19   3.2164140042072996E-005   8.5610729454714562E-004   3.7570220750293731E-002
 chl2c          20   3.7020645196759419E-002   3.7020645196759419E-002  0.50678202500000002        3.3959796437269891E-004   1.4831641970299546E-016
 chl          20   3.1478924211828744E-005   8.5030728245071843E-004   3.7020645196759419E-002
 chl2c          21   3.7838475073783531E-002   3.7838475073783531E-002  0.71973185000000006        3.3959796437269891E-004   9.5193208692521800E-008
 chl          21   3.2196479932639313E-005   8.5089263956481984E-004   3.7838475073783531E-002
 chl2c          22   3.7613353106285476E-002   3.7613353106285476E-002  0.64616892500000001        3.3959796437269891E-004   3.7078645479176492E-006
 chl          22   3.2818132848278598E-005   8.7251282159139494E-004   3.7613353106285476E-002
 chl2c          23   3.2286562315070731E-002   3.2286562315070731E-002  0.41564179999999995        1.8989792373969223E-004   9.6369958304140743E-017
 chl          23   2.7455186283588253E-005   8.5035954015992327E-004   3.2286562315070731E-002
 chl2c          24   3.7348402796863071E-002   3.7348402796863071E-002  0.57597492500000003        3.3959796437269891E-004   1.2059806282577883E-016
 chl          24   3.1757618886069089E-005   8.5030728245054810E-004   3.7348402796863071E-002
 chl2c          25   4.5426679235459781E-002   4.5426679235459781E-002  0.31406487500000002        1.2098157672315675E-004   7.6590729339739293E-017
 chl          25   3.8629010065652405E-005   8.5035954015980195E-004   4.5426679235459781E-002
 chl2c          26   4.7955660680174553E-002   4.7955660680174553E-002  0.49427735000000000        1.2098157672315675E-004   7.0413466025909416E-017
 chl          26   4.0779553564050911E-005   8.5035954015976411E-004   4.7955660680174553E-002
 chl2c          27   4.5333133499525620E-002   4.5333133499525620E-002  0.30964730000000001        1.2098157672315675E-004   8.0341774673208309E-017
 chl          27   3.8549462556660563E-005   8.5035954015982504E-004   4.5333133499525620E-002
 chl2c          28   3.1209236063453518E-002   3.1209236063453518E-002  0.28776342500000002        1.8989792373969223E-004   7.9903632092702845E-017
 chl          28   2.6539071627657681E-005   8.5035954015982244E-004   3.1209236063453518E-002
 chl2c          29   3.7743217595736761E-002   3.7743217595736761E-002  0.68676297499999994        3.3959796437269891E-004   3.5561134852536964E-006
 chl          29   3.2900835530111224E-005   8.7170192754916314E-004   3.7743217595736761E-002
 chl2c          30   2.5380056985171612E-002   2.5380056985171612E-002  0.38930277499999999        2.2702521639382406E-004   1.6943991439187358E-016
 chl          30   2.1582173587154604E-005   8.5035954016037332E-004   2.5380056985171612E-002
 chl2c          31   3.7576959810037038E-002   3.7576959810037038E-002  0.63559385000000002        3.3959796437269891E-004   3.7811611655674006E-006
 chl          31   3.2800940276739049E-005   8.7290032090296232E-004   3.7576959810037038E-002
 chl2c          32   2.0893126428578448E-002   2.0893126428578448E-002  0.24722667500000001        3.3959796437269891E-004   3.6229359047424365E-006
 chl          32   1.8168692711589193E-005   8.6960143440942056E-004   2.0893126428578448E-002
 chl2c          33   3.7458922634011876E-002   3.7458922634011876E-002  0.60343137499999999        3.3959796437269891E-004   1.2785055592601417E-006
 chl          33   3.2146571933040953E-005   8.5818196767497462E-004   3.7458922634011876E-002
 chl2c          34   2.5350269098008315E-002   2.5350269098008315E-002  0.38241020000000003        2.2702521639382406E-004   2.8450648064675767E-006
 chl          34   2.1943337377646087E-005   8.6560569802275199E-004   2.5350269098008315E-002
 chl2c          35   2.5740370148566064E-002   2.5740370148566064E-002  0.49574644999999995        2.2702521639382406E-004   1.2281967921087949E-016
 chl          35   2.1888569323085059E-005   8.5035954016008666E-004   2.5740370148566064E-002
 chl2c          36   3.7770393924465726E-002   3.7770393924465726E-002  0.69587337500000002        3.3959796437269891E-004   1.2845381834410215E-016
 chl          36   3.2116441019984287E-005   8.5030728258253356E-004   3.7770393924465726E-002
 chl2c          37   2.1353674699533250E-002   2.1353674699533250E-002  0.33194060000000003        3.3959796437269891E-004   1.1255163595785964E-016
 chl          37   1.8158300998221825E-005   8.5035954016002356E-004   2.1353674699533250E-002
 chl2c          38   2.1543295686358745E-002   2.1543295686358745E-002  0.38455722500000000        3.3959796437269891E-004   1.7290675194559866E-016
 chl          38   1.8319547013391433E-005   8.5035954016039457E-004   2.1543295686358745E-002
 chl2c          39   2.5670077108751441E-002   2.5670077108751441E-002  0.47091117500000002        2.2702521639382406E-004   1.3956555991605441E-016
 chl          39   2.1828794966074477E-005   8.5035954016018933E-004   2.5670077108751441E-002
 chl2c          40   3.7687445774703773E-002   3.7687445774703773E-002  0.66875547499999999        3.3959796437269891E-004   1.6874510981001900E-016
 chl          40   3.2045909604174279E-005   8.5030728258278108E-004   3.7687445774703773E-002
 chl2c          41   2.5582381488167241E-002   2.5582381488167241E-002  0.44304987499999998        2.2702521639382406E-004   1.0144554565814163E-016
 chl          41   2.1754222158474450E-005   8.5035954015995536E-004   2.5582381488167241E-002
 chl2c          42   3.7949995630725070E-002   3.7949995630725070E-002  0.76234377499999995        3.3959796437269891E-004   1.4252974852461378E-016
 chl          42   3.2269157653777124E-005   8.5030728245068287E-004   3.7949995630725070E-002
 chl2c          43   2.1185090152268007E-002   2.1185090152268007E-002  0.29539925000000000        3.3959796437269891E-004   1.7217618116774090E-016
 chl          43   1.8014943520139030E-005   8.5035954016039002E-004   2.1185090152268007E-002
 chl2c          44   3.7536352708156646E-002   3.7536352708156646E-002  0.62417262500000004        3.3959796437269891E-004   1.2189339110272110E-016
 chl          44   3.1917434064378251E-005   8.5030728245055612E-004   3.7536352708156646E-002
 chl2c          45   4.6544927192009838E-002   4.6544927192009838E-002  0.37662252499999999        1.2098157672315675E-004   1.7893821281299898E-006
 chl          45   4.0070761929684521E-005   8.6090502976580638E-004   4.6544927192009838E-002
 chl2c          46   3.7083195475449568E-002   3.7083195475449568E-002  0.51876034999999998        3.3959796437269891E-004   3.8089921836649535E-006
 chl          46   3.2374010753372231E-005   8.7301027698125447E-004   3.7083195475449568E-002
 chl2c          47   3.7519784612651236E-002   3.7519784612651236E-002  0.61962282499999999        3.3959796437269891E-004   1.5539719537721475E-016
 chl          47   3.1903346092121381E-005   8.5030728245076191E-004   3.7519784612651236E-002
 chl2c          48   3.7823212136301673E-002   3.7823212136301673E-002  0.71424949999999998        3.3959796437269891E-004   1.4949349079679369E-016
 chl          48   3.2161352725175984E-005   8.5030728245072569E-004   3.7823212136301673E-002
 chl2c          49   3.7152990741888416E-002   3.7152990741888416E-002  0.53276120000000005        3.3959796437269891E-004   1.3919589783648812E-016
 chl          49   3.1591458592649759E-005   8.5030728245066248E-004   3.7152990741888416E-002
 chl2c          50   2.1533072915600981E-002   2.1533072915600981E-002  0.38132569999999999        3.3959796437269891E-004   1.6068023716860180E-006
 chl          50   1.8521890406840928E-005   8.6016011181672017E-004   2.1533072915600981E-002
 chl2c          51   2.0700971146093840E-002   2.0700971146093840E-002  0.22275920000000002        3.3959796437269891E-004   1.8361037203895542E-016
 chl          51   1.7603268304667313E-005   8.5035954016046027E-004   2.0700971146093840E-002
 chl2c          52   3.7581825176985564E-002   3.7581825176985564E-002  0.63698869999999996        3.3959796437269891E-004   1.6529788175551006E-016
 chl          52   3.1956099640742946E-005   8.5030728258275994E-004   3.7581825176985564E-002
 chl2c          53   3.7925801262726190E-002   3.7925801262726190E-002  0.75269794999999995        3.3959796437269891E-004   1.4815841895172698E-016
 chl          53   3.2248585011478517E-005   8.5030728258265456E-004   3.7925801262726190E-002
 chl2c          54   3.7082433371327092E-002   3.7082433371327092E-002  0.51861124999999997        3.3959796437269891E-004   1.2169879369823545E-016
 chl          54   3.1531463146626912E-005   8.5030728245055493E-004   3.7082433371327092E-002
 chl2c          55   3.7357235588660491E-002   3.7357235588660491E-002  0.57808280000000001        3.3959796437269891E-004   3.7789656250201021E-006
 chl          55   3.2608114232500612E-005   8.7287278404504212E-004   3.7357235588660491E-002
 chl2c          56   3.7507394187257688E-002   3.7507394187257688E-002  0.61626080000000005        3.3959796437269891E-004   1.6573108829075817E-016
 chl          56   3.1892810428127587E-005   8.5030728258276254E-004   3.7507394187257688E-002
 chl2c          57   3.7727617852646313E-002   3.7727617852646313E-002  0.68163462500000005        3.3959796437269891E-004   3.9280444320437829E-006
 chl          57   3.2962015022453835E-005   8.7368397207569239E-004   3.7727617852646313E-002
 chl2c          58   3.7765358178394853E-002   3.7765358178394853E-002  0.69416802499999997        3.3959796437269891E-004   6.5948873731264813E-007
 chl          58   3.2265406243565599E-005   8.5436515896794227E-004   3.7765358178394853E-002
 chl2c          59   3.7173699120809672E-002   3.7173699120809672E-002  0.53705127500000005        3.3959796437269891E-004   1.6856175200058220E-016
 chl          59   3.1609067078060956E-005   8.5030728245084279E-004   3.7173699120809672E-002
 chl2c          60   3.7607757740906807E-002   3.7607757740906807E-002  0.64452155000000000        3.3959796437269891E-004   1.9893346502166881E-007
 chl          60   3.2024151352816582E-005   8.5153046276894065E-004   3.7607757740906807E-002
 chl2c          61   3.7805373434125003E-002   3.7805373434125003E-002  0.70794139999999994        3.3959796437269891E-004   1.4502528925983119E-016
 chl          61   3.2146184346804654E-005   8.5030728245069826E-004   3.7805373434125003E-002
 chl2c          62   3.7956103087269030E-002   3.7956103087269030E-002  0.76481592499999995        3.3959796437269891E-004   1.1852041785908894E-016
 chl          62   3.2274350868548106E-005   8.5030728245053542E-004   3.7956103087269030E-002
 chl2c          63   3.7855601011927406E-002   3.7855601011927406E-002  0.72597904999999996        3.3959796437269891E-004   1.7584425010977407E-006
 chl          63   3.2598991921315263E-005   8.6114051949787000E-004   3.7855601011927406E-002
 chl2c          64   2.5708982294816416E-002   2.5708982294816416E-002  0.48435739999999999        2.2702521639382406E-004   9.8724506399693599E-017
 chl          64   2.1861878362200089E-005   8.5035954015993856E-004   2.5708982294816416E-002
 chl2c          65   3.7953597170552002E-002   3.7953597170552002E-002  0.76379975000000000        3.3959796437269891E-004   1.3087191708393047E-016
 chl          65   3.2272220074324770E-005   8.5030728258254831E-004   3.7953597170552002E-002
 chl2c          66   3.1840477731474713E-002   3.1840477731474713E-002  0.35213202499999996        1.8989792373969223E-004   7.6199010023462453E-017
 chl          66   2.7075854002205176E-005   8.5035954015979956E-004   3.1840477731474713E-002
 chl2c          67   3.7937587124568600E-002   3.7937587124568600E-002  0.75736760000000003        3.3959796437269891E-004   1.3840991513072321E-016
 chl          67   3.2258606610626980E-005   8.5030728245065750E-004   3.7937587124568600E-002
 chl2c          68   3.7855407263856986E-002   3.7855407263856986E-002  0.72590779999999999        3.3959796437269891E-004   3.5098513001559765E-007
 chl          68   3.2270443109768524E-005   8.5246588115772855E-004   3.7855407263856986E-002
 chl2c          69   2.1732330561541505E-002   2.1732330561541505E-002  0.45524217500000003        3.3959796437269891E-004   2.9581588439138501E-006
 chl          69   1.8844681712367720E-005   8.6712659091041540E-004   2.1732330561541505E-002
 chl2c          70   3.2658010878182209E-002   3.2658010878182209E-002  0.48694062500000002        1.8989792373969223E-004   9.6015740403403667E-017
 chl          70   2.7771051112908725E-005   8.5035954015992110E-004   3.2658010878182209E-002
 chl2c          71   4.3481058864416305E-002   4.3481058864416305E-002  0.23986107500000001        1.2098157672315675E-004   8.3843972000660042E-017
 chl          71   3.6974533221608261E-005   8.5035954015984629E-004   4.3481058864416305E-002
 chl2c          72   3.7549776402781669E-002   3.7549776402781669E-002  0.62790522500000001        3.3959796437269891E-004   1.6624961782843236E-016
 chl          72   3.1928848334639742E-005   8.5030728258276580E-004   3.7549776402781669E-002
 chl2c          73   3.1852614277819484E-002   3.1852614277819484E-002  0.35362212500000001        1.8989792373969223E-004   9.2432479863582076E-017
 chl          73   2.7086174430177213E-005   8.5035954015989909E-004   3.1852614277819484E-002
 chl2c          74   3.7616827685877569E-002   3.7616827685877569E-002  0.64719590000000005        3.3959796437269891E-004   2.0393148704290060E-007
 chl          74   3.2033032607927124E-005   8.5156124475518284E-004   3.7616827685877569E-002
 chl2c          75   3.7826830779512356E-002   3.7826830779512356E-002  0.71554212500000003        3.3959796437269891E-004   1.3131351749626966E-016
 chl          75   3.2164429688837157E-005   8.5030728258255112E-004   3.7826830779512356E-002
 chl2c          76   3.7257729557919804E-002   3.7257729557919804E-002  0.55513977500000000        3.3959796437269891E-004   3.5595529831959551E-006
 chl          76   3.2477269487840308E-005   8.7169212598830191E-004   3.7257729557919804E-002
 chl2c          77   3.7138172437479272E-002   3.7138172437479272E-002  0.52973029999999999        3.3959796437269891E-004   1.1548625664254800E-016
 chl          77   3.1578858480491869E-005   8.5030728245052175E-004   3.7138172437479272E-002
 chl2c          78   4.7515248899399322E-002   4.7515248899399322E-002  0.45117492500000000        1.2098157672315675E-004   2.4213638890051110E-006
 chl          78   4.1048469784733078E-005   8.6390097359359519E-004   4.7515248899399322E-002
 prod   4.0122369877052693E-007   307.87479959072130        10.000000000000000     
 chl2c           1   3.7477407714772232E-002   3.7477407714772232E-002  0.60826437499999997        2.7747000884837699E-004   1.5239827563100171E-016
 chl           1   3.2119882675839696E-005   8.5704654175371912E-004   3.7477407714772232E-002
 chl2c           2   3.2640259920490348E-002   3.2640259920490348E-002  0.48302390000000001        1.5849939573338008E-004   1.7604510736233593E-006
 chl           2   2.8312941427790812E-005   8.6742389603389756E-004   3.2640259920490348E-002
 chl2c           3   3.7922212503796585E-002   3.7922212503796585E-002  0.75128689999999998        2.7747000884837699E-004   1.6421050216720980E-016
 chl           3   3.2501101082031274E-005   8.5704654175379209E-004   3.7922212503796585E-002
 chl2c           4   3.7976509103863923E-002   3.7976509103863923E-002  0.77318742499999993        2.7747000884837699E-004   2.6031239366673583E-006
 chl           4   3.3152022501729691E-005   8.7296129328423805E-004   3.7976509103863923E-002
 chl2c           5   3.2648791750472091E-002   2.5710500362372445E-002  0.48489679999999996        1.6958717299394530E-004   2.9682657020933823E-006
 chl           5   2.8492119310890402E-005   8.7268525979919040E-004   3.2648791750472091E-002
 chl2c           6   3.1261039902252048E-002   3.1261039902252048E-002  0.29222855000000003        1.5849939573338008E-004   1.0204671152113267E-016
 chl           6   2.6793045189760417E-005   8.5707466141682136E-004   3.1261039902252048E-002
 chl2c           7   4.3064391842467263E-002   4.3064391842467263E-002  0.22770740000000000        1.0263120191798971E-004   1.3896708883616770E-006
 chl           7   3.7265140623932329E-005   8.6533535084510130E-004   4.3064391842467263E-002
 chl2c           8   4.7969800906495587E-002   4.7969800906495587E-002  0.49578364999999996        1.0263120191798971E-004   7.3401761006429246E-017
 chl           8   4.1113700870158538E-005   8.5707466141664421E-004   4.7969800906495587E-002
 chl2c           9   2.4803669054600401E-002   2.4803669054600401E-002  0.28700202499999999        1.6958717299394530E-004   9.4488469767887287E-008
 chl           9   2.1273055941093217E-005   8.5765762695288214E-004   2.4803669054600401E-002
 chl2c          10   3.8255344592799292E-002   2.5387016219684602E-002  0.39094662499999999        1.6958717299394530E-004   3.5956537902917470E-006
 chl          10   3.3503402417075493E-005   8.7578357413049563E-004   3.8255344592799292E-002
 chl2c          11   2.1820572217820047E-002   2.1820572217820047E-002  0.49737575000000001        2.7747000884837699E-004   1.5028074225495413E-016
 chl          11   1.8701859545515953E-005   8.5707466141712104E-004   2.1820572217820047E-002
 chl2c          12   4.5290941298723353E-002   4.5290941298723353E-002  0.30768942500000002        1.0263120191798971E-004   7.2777290037864661E-017
 chl          12   3.8817718178844253E-005   8.5707466141664041E-004   4.5290941298723353E-002
 chl2c          13   3.7935816987997487E-002   3.7935816987997487E-002  0.75666275000000005        2.7747000884837699E-004   1.3682449116447013E-016
 chl          13   3.2512760753106794E-005   8.5704654162037711E-004   3.7935816987997487E-002
 chl2c          14   4.6856526101924839E-002   4.6856526101924839E-002  0.39804095000000000        1.0263120191798971E-004   8.0837033364241004E-017
 chl          14   4.0159541243969537E-005   8.5707466141669018E-004   4.6856526101924839E-002
 chl2c          15   2.6605519341707417E-002   2.0954299823745293E-002  0.25607262500000000        2.7747000884837699E-004   4.1190826746412460E-006
 chl          15   2.3372212687838284E-005   8.7847233454298602E-004   2.6605519341707417E-002
 chl2c          16   3.7823443882273475E-002   3.7823443882273475E-002  0.71433214999999994        2.7747000884837699E-004   1.7086786288388446E-016
 chl          16   3.2416451776522675E-005   8.5704654175383351E-004   3.7823443882273475E-002
 chl2c          17   3.7542254757581245E-002   3.7542254757581245E-002  0.62580860000000005        2.7747000884837699E-004   1.7078336605385496E-016
 chl          17   3.2175459609626388E-005   8.5704654175383296E-004   3.7542254757581245E-002
 chl2c          18   2.5694475239060960E-002   2.5694475239060960E-002  0.47925950000000000        1.6958717299394530E-004   1.5676378993857171E-016
 chl          18   2.2022083665809805E-005   8.5707466141716126E-004   2.5694475239060960E-002
 chl2c          19   3.7570220750293731E-002   3.7570220750293731E-002  0.63367130000000005        2.7747000884837699E-004   1.0295245247512205E-006
 chl          19   3.2439334072171584E-005   8.6343208595381939E-004   3.7570220750293731E-002
 chl2c          20   3.7020645196759419E-002   3.7020645196759419E-002  0.50678202500000002        2.7747000884837699E-004   1.5051470381657049E-016
 chl          20   3.1728415934440825E-005   8.5704654162046200E-004   3.7020645196759419E-002
 chl2c          21   3.7838475073783531E-002   3.7838475073783531E-002  0.71973185000000006        2.7747000884837699E-004   1.5042580695691084E-007
 chl          21   3.2464516769397097E-005   8.5797635095210818E-004   3.7838475073783531E-002
 chl2c          22   3.7613353106285476E-002   3.7613353106285476E-002  0.64616892500000001        2.7747000884837699E-004   3.7794846512666120E-006
 chl          22   3.3066897903286735E-005   8.7912656470292205E-004   3.7613353106285476E-002
 chl2c          23   3.2286562315070731E-002   3.2286562315070731E-002  0.41564179999999995        1.5849939573338008E-004   9.6230532564338389E-017
 chl          23   2.7671994464501188E-005   8.5707466141678537E-004   3.2286562315070731E-002
 chl2c          24   3.7348402796863071E-002   3.7348402796863071E-002  0.57597492500000003        2.7747000884837699E-004   1.2243665529536526E-016
 chl          24   3.2009319452092984E-005   8.5704654162028799E-004   3.7348402796863071E-002
 chl2c          25   4.5426679235459781E-002   4.5426679235459781E-002  0.31406487500000002        1.0263120191798971E-004   7.6475107633552308E-017
 chl          25   3.8934055725015060E-005   8.5707466141666329E-004   4.5426679235459781E-002
 chl2c          26   4.7955660680174553E-002   4.7955660680174553E-002  0.49427735000000000        1.0263120191798971E-004   7.0305788004744894E-017
 chl          26   4.1101581640471164E-005   8.5707466141662502E-004   4.7955660680174553E-002
 chl2c          27   4.5333133499525620E-002   4.5333133499525620E-002  0.30964730000000001        1.0263120191798971E-004   8.0223341713789201E-017
 chl          27   3.8853880045063369E-005   8.5707466141668649E-004   4.5333133499525620E-002
 chl2c          28   3.1209236063453518E-002   3.1209236063453518E-002  0.28776342500000002        1.5849939573338008E-004   7.9785746243587756E-017
 chl          28   2.6748645432157778E-005   8.5707466141668367E-004   3.1209236063453518E-002
 chl2c          29   3.7743217595736761E-002   3.7743217595736761E-002  0.68676297499999994        2.7747000884837699E-004   3.5905000427543660E-006
 chl          29   3.3146880258781438E-005   8.7822083993510680E-004   3.7743217595736761E-002
 chl2c          30   2.5380056985171612E-002   2.5380056985171612E-002  0.38930277499999999        1.6958717299394530E-004   1.7158468721029578E-016
 chl          30   2.1752603747316550E-005   8.5707466141725309E-004   2.5380056985171612E-002
 chl2c          31   3.7576959810037038E-002   3.7576959810037038E-002  0.63559385000000002        2.7747000884837699E-004   3.8095307005237185E-006
 chl          31   3.3040198595106508E-005   8.7926747565888151E-004   3.7576959810037038E-002
 chl2c          32   2.4244090364929059E-002   2.0893126428578448E-002  0.24722667500000001        2.7747000884837699E-004   3.7292056134521696E-006
 chl          32   2.1249432194806584E-005   8.7647883978957293E-004   2.4244090364929059E-002
 chl2c          33   3.7458922634011876E-002   3.7458922634011876E-002  0.60343137499999999        2.7747000884837699E-004   1.3738184301190192E-006
 chl          33   3.2423307729891812E-005   8.6556968139954362E-004   3.7458922634011876E-002
 chl2c          34   3.1009553313843873E-002   2.5350269098008315E-002  0.38241020000000003        1.6958717299394530E-004   2.8614451569533696E-006
 chl          34   2.7041703723517329E-005   8.7204428421885265E-004   3.1009553313843873E-002
 chl2c          35   2.5740370148566064E-002   2.5740370148566064E-002  0.49574644999999995        1.6958717299394530E-004   1.2451794726424044E-016
 chl          35   2.2061419029829526E-005   8.5707466141696166E-004   2.5740370148566064E-002
 chl2c          36   3.7770393924465726E-002   3.7770393924465726E-002  0.69587337500000002        2.7747000884837699E-004   1.3039666040233875E-016
 chl          36   3.2370985493633893E-005   8.5704654175358295E-004   3.7770393924465726E-002
 chl2c          37   2.1353674699533250E-002   2.1353674699533250E-002  0.33194060000000003        2.7747000884837699E-004   1.1413771764859774E-016
 chl          37   1.8301693513109024E-005   8.5707466141689715E-004   2.1353674699533250E-002
 chl2c          38   2.1543295686358745E-002   2.1543295686358745E-002  0.38455722500000000        2.7747000884837699E-004   1.7508074324374838E-016
 chl          38   1.8464212856198153E-005   8.5707466141727467E-004   2.1543295686358745E-002
 chl2c          39   2.5670077108751441E-002   2.5670077108751441E-002  0.47091117500000002        1.6958717299394530E-004   1.4143590048295389E-016
 chl          39   2.2001172646533126E-005   8.5707466141706629E-004   2.5670077108751441E-002
 chl2c          40   3.7687445774703773E-002   3.7687445774703773E-002  0.66875547499999999        2.7747000884837699E-004   1.7119409828731477E-016
 chl          40   3.2299895068745071E-005   8.5704654175383557E-004   3.7687445774703773E-002
 chl2c          41   2.5582381488167241E-002   2.5582381488167241E-002  0.44304987499999998        1.6958717299394530E-004   1.0290445871979940E-016
 chl          41   2.1926010952207054E-005   8.5707466141682754E-004   2.5582381488167241E-002
 chl2c          42   3.7949995630725070E-002   3.7949995630725070E-002  0.76234377499999995        2.7747000884837699E-004   1.4465481120362074E-016
 chl          42   3.2524912509823192E-005   8.5704654162042579E-004   3.7949995630725070E-002
 chl2c          43   2.1185090152268007E-002   2.1185090152268007E-002  0.29539925000000000        2.7747000884837699E-004   1.7434405986757611E-016
 chl          43   1.8157203969349449E-005   8.5707466141727022E-004   2.1185090152268007E-002
 chl2c          44   3.7536352708156646E-002   3.7536352708156646E-002  0.62417262500000004        2.7747000884837699E-004   1.2374929978581149E-016
 chl          44   3.2170401273565291E-005   8.5704654162029612E-004   3.7536352708156646E-002
 chl2c          45   4.6544927192009838E-002   4.6544927192009838E-002  0.37662252499999999        1.0263120191798971E-004   1.7248151714792702E-006
 chl          45   4.0359671965138214E-005   8.6711215163457346E-004   4.6544927192009838E-002
 chl2c          46   3.7083195475449568E-002   3.7083195475449568E-002  0.51876034999999998        2.7747000884837699E-004   3.8441152742746431E-006
 chl          46   3.2609985246123651E-005   8.7937365774512759E-004   3.7083195475449568E-002
 chl2c          47   3.7519784612651236E-002   3.7519784612651236E-002  0.61962282499999999        2.7747000884837699E-004   1.5768374579081735E-016
 chl          47   3.2156201644619034E-005   8.5704654162050645E-004   3.7519784612651236E-002
 chl2c          48   3.7823212136301673E-002   3.7823212136301673E-002  0.71424949999999998        2.7747000884837699E-004   1.5170654908743721E-016
 chl          48   3.2416253154394714E-005   8.5704654162046937E-004   3.7823212136301673E-002
 chl2c          49   3.7152990741888416E-002   3.7152990741888416E-002  0.53276120000000005        2.7747000884837699E-004   1.4127832992255196E-016
 chl          49   3.1841842226190383E-005   8.5704654162040476E-004   3.7152990741888416E-002
 chl2c          50   2.1533072915600981E-002   2.1533072915600981E-002  0.38132569999999999        2.7747000884837699E-004   1.7336627872070344E-006
 chl          50   1.8679984136502429E-005   8.6750201467847841E-004   2.1533072915600981E-002
 chl2c          51   2.0700971146093840E-002   2.0700971146093840E-002  0.22275920000000002        2.7747000884837699E-004   1.8587120755511498E-016
 chl          51   1.7742277836048534E-005   8.5707466141734146E-004   2.0700971146093840E-002
 chl2c          52   3.7581825176985564E-002   3.7581825176985564E-002  0.63698869999999996        2.7747000884837699E-004   1.6770541137122000E-016
 chl          52   3.2209373300731889E-005   8.5704654175381377E-004   3.7581825176985564E-002
 chl2c          53   3.7925801262726190E-002   3.7925801262726190E-002  0.75269794999999995        2.7747000884837699E-004   1.5035471681660167E-016
 chl          53   3.2504176815457836E-005   8.5704654175370655E-004   3.7925801262726190E-002
 chl2c          54   3.7082433371327092E-002   3.7082433371327092E-002  0.51861124999999997        2.7747000884837699E-004   1.2355210416010159E-016
 chl          54   3.1781371275760901E-005   8.5704654162029503E-004   3.7082433371327092E-002
 chl2c          55   3.7357235588660491E-002   3.7357235588660491E-002  0.57808280000000001        2.7747000884837699E-004   3.8426330223245652E-006
 chl          55   3.2851881632586761E-005   8.7939809022053827E-004   3.7357235588660491E-002
 chl2c          56   3.7507394187257688E-002   3.7507394187257688E-002  0.61626080000000005        2.7747000884837699E-004   1.6814384674333722E-016
 chl          56   3.2145582478386397E-005   8.5704654175381648E-004   3.7507394187257688E-002
 chl2c          57   3.7727617852646313E-002   3.7727617852646313E-002  0.68163462500000005        2.7747000884837699E-004   3.9417110558265117E-006
 chl          57   3.3196874661128632E-005   8.7990911037072320E-004   3.7727617852646313E-002
 chl2c          58   3.7765358178394853E-002   3.7765358178394853E-002  0.69416802499999997        2.7747000884837699E-004   7.5482198072245215E-007
 chl          58   3.2543345667120283E-005   8.6172479851489854E-004   3.7765358178394853E-002
 chl2c          59   3.7173699120809672E-002   3.7173699120809672E-002  0.53705127500000005        2.7747000884837699E-004   1.7100854388554320E-016
 chl          59   3.1859590270734256E-005   8.5704654162058896E-004   3.7173699120809672E-002
 chl2c          60   3.7607757740906807E-002   3.7607757740906807E-002  0.64452155000000000        2.7747000884837699E-004   2.5434475576282207E-007
 chl          60   3.2290793969887975E-005   8.5862055888443855E-004   3.7607757740906807E-002
 chl2c          61   3.7805373434125003E-002   3.7805373434125003E-002  0.70794139999999994        2.7747000884837699E-004   1.4718204940775733E-016
 chl          61   3.2400964556386140E-005   8.5704654162044129E-004   3.7805373434125003E-002
 chl2c          62   3.7956103087269030E-002   3.7956103087269030E-002  0.76481592499999995        2.7747000884837699E-004   1.2033113127256331E-016
 chl          62   3.2530146884326562E-005   8.5704654162027498E-004   3.7956103087269030E-002
 chl2c          63   3.7855601011927406E-002   3.7855601011927406E-002  0.72597904999999996        2.7747000884837699E-004   1.8479279196945713E-006
 chl          63   3.2877198702370181E-005   8.6848967718175583E-004   3.7855601011927406E-002
 chl2c          64   2.5708982294816416E-002   2.5708982294816416E-002  0.48435739999999999        1.6958717299394530E-004   1.0015132805729827E-016
 chl          64   2.2034517295700558E-005   8.5707466141681063E-004   2.5708982294816416E-002
 chl2c          65   3.7953597170552002E-002   3.7953597170552002E-002  0.76379975000000000        2.7747000884837699E-004   1.3284647924549251E-016
 chl          65   3.2527999202130740E-005   8.5704654175359813E-004   3.7953597170552002E-002
 chl2c          66   3.1840477731474713E-002   3.1840477731474713E-002  0.35213202499999996        1.5849939573338008E-004   7.6083884850784481E-017
 chl          66   2.7289666671048419E-005   8.5707466141666090E-004   3.1840477731474713E-002
 chl2c          67   3.7937587124568600E-002   3.7937587124568600E-002  0.75736760000000003        2.7747000884837699E-004   1.4048224909757619E-016
 chl          67   3.2514277842534123E-005   8.5704654162039977E-004   3.7937587124568600E-002
 chl2c          68   3.7855407263856986E-002   3.7855407263856986E-002  0.72590779999999999        2.7747000884837699E-004   4.3307617419224080E-007
 chl          68   3.2545353029552627E-005   8.5972798556114823E-004   3.7855407263856986E-002
 chl2c          69   2.1732330561541505E-002   2.1732330561541505E-002  0.45524217500000003        2.7747000884837699E-004   2.9844872300377201E-006
 chl          69   1.8976596047672806E-005   8.7319654898194076E-004   2.1732330561541505E-002
 chl2c          70   3.2658010878182209E-002   3.2658010878182209E-002  0.48694062500000002        1.5849939573338008E-004   9.5878434115744885E-017
 chl          70   2.7990353615963644E-005   8.5707466141678331E-004   3.2658010878182209E-002
 chl2c          71   4.3481058864416305E-002   4.3481058864416305E-002  0.23986107500000001        1.0263120191798971E-004   8.3719332441688109E-017
 chl          71   3.7266513804259561E-005   8.5707466141670807E-004   4.3481058864416305E-002
 chl2c          72   3.7549776402781669E-002   3.7549776402781669E-002  0.62790522500000001        2.7747000884837699E-004   1.6866862786966612E-016
 chl          72   3.2181906009633212E-005   8.5704654175381974E-004   3.7549776402781669E-002
 chl2c          73   3.1852614277819484E-002   3.1852614277819484E-002  0.35362212500000001        1.5849939573338008E-004   9.2297594629007855E-017
 chl          73   2.7300068597400824E-005   8.5707466141676108E-004   3.1852614277819484E-002
 chl2c          74   3.7616827685877569E-002   3.7616827685877569E-002  0.64719590000000005        2.7747000884837699E-004   2.6859576106598369E-007
 chl          74   3.2301890893011009E-005   8.5870853232895188E-004   3.7616827685877569E-002
 chl2c          75   3.7826830779512356E-002   3.7826830779512356E-002  0.71554212500000003        2.7747000884837699E-004   1.3329385376359569E-016
 chl          75   3.2419354505079727E-005   8.5704654175360084E-004   3.7826830779512356E-002
 chl2c          76   3.7257729557919804E-002   3.7257729557919804E-002  0.55513977500000000        2.7747000884837699E-004   3.5988903095685119E-006
 chl          76   3.2720315462054040E-005   8.7821549649685362E-004   3.7257729557919804E-002
 chl2c          77   3.7138172437479272E-002   3.7138172437479272E-002  0.52973029999999999        2.7747000884837699E-004   1.1725602384510306E-016
 chl          77   3.1829142250055027E-005   8.5704654163147641E-004   3.7138172437479272E-002
 chl2c          78   4.7515248899399322E-002   4.7515248899399322E-002  0.45117492500000000        1.0263120191798971E-004   2.3963448930897418E-006
 chl          78   4.1339481626833703E-005   8.7002557251376000E-004   4.7515248899399322E-002
 prod   4.0052042607538487E-007   233.51008885197186        10.000000000000000     
 chl2c           1   3.7477407714772232E-002   3.7477407714772232E-002  0.60826437499999997        2.3048900490467493E-004   1.4818653077922443E-016
 chl           1   3.2430726194145182E-005   8.6534069914772065E-004   3.7477407714772232E-002
 chl2c           2   3.2640259920490348E-002   3.2640259920490348E-002  0.48302390000000001        1.3455047642130797E-004   1.7384201993041850E-006
 chl           2   2.8573356259113629E-005   8.7540222806793070E-004   3.2640259920490348E-002
 chl2c           3   3.7922212503796585E-002   3.7922212503796585E-002  0.75128689999999998        2.3048900490467493E-004   1.5972280534827225E-016
 chl           3   3.2815633881266504E-005   8.6534069914779275E-004   3.7922212503796585E-002
 chl2c           4   3.7976509103863923E-002   3.7976509103863923E-002  0.77318742499999993        2.3048900490467493E-004   2.7030438761017004E-006
 chl           4   3.3482451426817459E-005   8.8166217003370594E-004   3.7976509103863923E-002
 chl2c           5   3.9558404118813180E-002   2.5710500362372445E-002  0.48489679999999996        1.3271360667207416E-004   2.8581393329434776E-006
 chl           5   3.4829956770973478E-005   8.8046920867591459E-004   3.9558404118813180E-002
 chl2c           6   3.1261039902252048E-002   3.1261039902252048E-002  0.29222855000000003        1.3455047642130797E-004   1.0192010651867391E-016
 chl           6   2.7052535638093773E-005   8.6537542329629628E-004   3.1261039902252048E-002
 chl2c           7   4.3064391842467263E-002   4.3064391842467263E-002  0.22770740000000000        8.8202501723447083E-005   1.4471490236218288E-006
 chl           7   3.7629025804029501E-005   8.7378514345864359E-004   4.3064391842467263E-002
 chl2c           8   4.7969800906495587E-002   4.7969800906495587E-002  0.49578364999999996        8.8202501723447083E-005   7.3324447818293618E-017
 chl           8   4.1511886764889101E-005   8.6537542329611760E-004   4.7969800906495587E-002
 chl2c           9   2.4803669054600401E-002   2.4803669054600401E-002  0.28700202499999999        1.3271360667207416E-004   2.5564743431999676E-007
 chl           9   2.1504098418668434E-005   8.6697247779477264E-004   2.4803669054600401E-002
 chl2c          10   4.6094359275987033E-002   2.5387016219684602E-002  0.39094662499999999        1.3271360667207416E-004   3.4675092103497187E-006
 chl          10   4.0721681323590596E-005   8.8344174782367907E-004   4.6094359275987033E-002
 chl2c          11   2.1820572217820047E-002   2.1820572217820047E-002  0.49737575000000001        2.3048900490467493E-004   1.4655124175666323E-016
 chl          11   1.8882986919569536E-005   8.6537542329657633E-004   2.1820572217820047E-002
 chl2c          12   4.5290941298723353E-002   4.5290941298723353E-002  0.30768942500000002        8.8202501723447083E-005   7.2700534505045007E-017
 chl          12   3.9193667497862162E-005   8.6537542329611370E-004   4.5290941298723353E-002
 chl2c          13   3.7935816987997487E-002   3.7935816987997487E-002  0.75666275000000005        2.3048900490467493E-004   1.3298736577500604E-016
 chl          13   3.2827406390031919E-005   8.6534069901323557E-004   3.7935816987997487E-002
 chl2c          14   4.6856526101924839E-002   4.6856526101924839E-002  0.39804095000000000        8.8202501723447083E-005   8.0734085393358562E-017
 chl          14   4.0548486109640969E-005   8.6537542329616411E-004   4.6856526101924839E-002
 chl2c          15   3.0419094008069861E-002   2.0954299823745293E-002  0.25607262500000000        2.3048900490467493E-004   3.9782082350008815E-006
 chl          15   2.6954686524080087E-005   8.8611076046279664E-004   3.0419094008069861E-002
 chl2c          16   3.7823443882273475E-002   3.7823443882273475E-002  0.71433214999999994        2.3048900490467493E-004   1.6622772796352057E-016
 chl          16   3.2730165373265375E-005   8.6534069914783352E-004   3.7823443882273475E-002
 chl2c          17   3.7542254757581245E-002   3.7542254757581245E-002  0.62580860000000005        2.3048900490467493E-004   1.6614515202216016E-016
 chl          17   3.2486840979511412E-005   8.6534069914783287E-004   3.7542254757581245E-002
 chl2c          18   2.5694475239060960E-002   2.5694475239060960E-002  0.47925950000000000        1.3271360667207416E-004   1.5291754233721054E-016
 chl          18   2.2235367386386798E-005   8.6537542329661612E-004   2.5694475239060960E-002
 chl2c          19   3.7570220750293731E-002   3.7570220750293731E-002  0.63367130000000005        2.3048900490467493E-004   1.1501578922595262E-006
 chl          19   3.2781588763150677E-005   8.7254181925173774E-004   3.7570220750293731E-002
 chl2c          20   3.7020645196759419E-002   3.7020645196759419E-002  0.50678202500000002        2.3048900490467493E-004   1.4634761292794547E-016
 chl          20   3.2035470992487871E-005   8.6534069901331916E-004   3.7020645196759419E-002
 chl2c          21   3.7838475073783531E-002   3.7838475073783531E-002  0.71973185000000006        2.3048900490467493E-004   2.6662982331484579E-007
 chl          21   3.2806200564992271E-005   8.6700641347256925E-004   3.7838475073783531E-002
 chl2c          22   3.7613353106285476E-002   3.7613353106285476E-002  0.64616892500000001        2.3048900490467493E-004   3.7022723378995812E-006
 chl          22   3.3340886662534649E-005   8.8641091285645397E-004   3.7613353106285476E-002
 chl2c          23   3.2286562315070731E-002   3.2286562315070731E-002  0.41564179999999995        1.3455047642130797E-004   9.6134012608707252E-017
 chl          23   2.7939997530185412E-005   8.6537542329626006E-004   3.2286562315070731E-002
 chl2c          24   3.7348402796863071E-002   3.7348402796863071E-002  0.57597492500000003        2.3048900490467493E-004   1.1895662762284843E-016
 chl          24   3.2319092983262095E-005   8.6534069901314785E-004   3.7348402796863071E-002
 chl2c          25   4.5426679235459781E-002   4.5426679235459781E-002  0.31406487500000002        8.8202501723447083E-005   7.6395074966986214E-017
 chl          25   3.9311131772323837E-005   8.6537542329613679E-004   4.5426679235459781E-002
 chl2c          26   4.7955660680174553E-002   4.7955660680174553E-002  0.49427735000000000        8.8202501723447083E-005   7.0231256388689826E-017
 chl          26   4.1499650160550110E-005   8.6537542329609830E-004   4.7955660680174553E-002
 chl2c          27   4.5333133499525620E-002   4.5333133499525620E-002  0.30964730000000001        8.8202501723447083E-005   8.0121097997577389E-017
 chl          27   3.9230179591493324E-005   8.6537542329616021E-004   4.5333133499525620E-002
 chl2c          28   3.1209236063453518E-002   3.1209236063453518E-002  0.28776342500000002        1.3455047642130797E-004   7.9684005388146955E-017
 chl          28   2.7007705869160788E-005   8.6537542329615739E-004   3.1209236063453518E-002
 chl2c          29   3.7743217595736761E-002   3.7743217595736761E-002  0.68676297499999994        2.3048900490467493E-004   3.4525313953194280E-006
 chl          29   3.3414962951995129E-005   8.8532364436702071E-004   3.7743217595736761E-002
 chl2c          30   2.5380056985171612E-002   2.5380056985171612E-002  0.38930277499999999        1.3271360667207416E-004   1.6748431925786576E-016
 chl          30   2.1963277556837434E-005   8.6537542329670719E-004   2.5380056985171612E-002
 chl2c          31   3.7576959810037038E-002   3.7576959810037038E-002  0.63559385000000002        2.3048900490467493E-004   3.6447581647977357E-006
 chl          31   3.3299132579818496E-005   8.8615824026626257E-004   3.7576959810037038E-002
 chl2c          32   2.8706398315256912E-002   2.0893126428578448E-002  0.24722667500000001        2.3048900490467493E-004   3.7428507551103036E-006
 chl          32   2.5402210607917934E-005   8.8489716922854572E-004   2.8706398315256912E-002
 chl2c          33   3.7458922634011876E-002   3.7458922634011876E-002  0.60343137499999999        2.3048900490467493E-004   1.4876945371919768E-006
 chl          33   3.2763030725150320E-005   8.7463889565799228E-004   3.7458922634011876E-002
 chl2c          34   3.7173677156858924E-002   2.5350269098008315E-002  0.38241020000000003        1.3271360667207416E-004   2.7323335382529037E-006
 chl          34   3.2702258816253781E-005   8.7971546850914315E-004   3.7173677156858924E-002
 chl2c          35   2.5740370148566064E-002   2.5740370148566064E-002  0.49574644999999995        1.3271360667207416E-004   1.2128669490632733E-016
 chl          35   2.2275083713121846E-005   8.6537542329641825E-004   2.5740370148566064E-002
 chl2c          36   3.7770393924465726E-002   3.7770393924465726E-002  0.69587337500000002        2.3048900490467493E-004   1.2671775766402245E-016
 chl          36   3.2684259085676924E-005   8.6534069914758643E-004   3.7770393924465726E-002
 chl2c          37   2.1353674699533250E-002   2.1353674699533250E-002  0.33194060000000003        2.3048900490467493E-004   1.1112299391562521E-016
 chl          37   1.8478945282041246E-005   8.6537542329635472E-004   2.1353674699533250E-002
 chl2c          38   2.1543295686358745E-002   2.1543295686358745E-002  0.38455722500000000        2.3048900490467493E-004   1.7092299398323235E-016
 chl          38   1.8643038623789287E-005   8.6537542329672866E-004   2.1543295686358745E-002
 chl2c          39   2.5670077108751441E-002   2.5670077108751441E-002  0.47091117500000002        1.3271360667207416E-004   1.3787123698767548E-016
 chl          39   2.2214253844040136E-005   8.6537542329652190E-004   2.5670077108751441E-002
 chl2c          40   3.7687445774703773E-002   3.7687445774703773E-002  0.66875547499999999        2.3048900490467493E-004   1.6654655031829295E-016
 chl          40   3.2612480675778300E-005   8.6534069914783547E-004   3.7687445774703773E-002
 chl2c          41   2.5582381488167241E-002   2.5582381488167241E-002  0.44304987499999998        1.3271360667207416E-004   1.0013446754598267E-016
 chl          41   2.2138364209249796E-005   8.6537542329628598E-004   2.5582381488167241E-002
 chl2c          42   3.7949995630725070E-002   3.7949995630725070E-002  0.76234377499999995        2.3048900490467493E-004   1.4062779077202300E-016
 chl          42   3.2839675746642679E-005   8.6534069901328327E-004   3.7949995630725070E-002
 chl2c          43   2.1185090152268007E-002   2.1185090152268007E-002  0.29539925000000000        2.3048900490467493E-004   1.7019832121313785E-016
 chl          43   1.8333056358098187E-005   8.6537542329672410E-004   2.1185090152268007E-002
 chl2c          44   3.7536352708156646E-002   3.7536352708156646E-002  0.62417262500000004        2.3048900490467493E-004   1.2023625220146645E-016
 chl          44   3.2481733690880636E-005   8.6534069901315588E-004   3.7536352708156646E-002
 chl2c          45   4.6544927192009838E-002   4.6544927192009838E-002  0.37662252499999999        8.8202501723447083E-005   1.5825370983282920E-006
 chl          45   4.0706086713949368E-005   8.7455474032704472E-004   4.6544927192009838E-002
 chl2c          46   3.7083195475449568E-002   3.7083195475449568E-002  0.51876034999999998        2.3048900490467493E-004   3.6939582953073918E-006
 chl          46   3.2866883695010031E-005   8.8630128212033700E-004   3.7083195475449568E-002
 chl2c          47   3.7519784612651236E-002   3.7519784612651236E-002  0.61962282499999999        2.3048900490467493E-004   1.5334765522277274E-016
 chl          47   3.2467396643542446E-005   8.6534069901336307E-004   3.7519784612651236E-002
 chl2c          48   3.7823212136301673E-002   3.7823212136301673E-002  0.71424949999999998        2.3048900490467493E-004   1.4751118218812546E-016
 chl          48   3.2729964828956622E-005   8.6534069901332642E-004   3.7823212136301673E-002
 chl2c          49   3.7152990741888416E-002   3.7152990741888416E-002  0.53276120000000005        2.3048900490467493E-004   1.3733281035219915E-016
 chl          49   3.2149994979019003E-005   8.6534069901326278E-004   3.7152990741888416E-002
 chl2c          50   2.1533072915600981E-002   2.1533072915600981E-002  0.38132569999999999        2.3048900490467493E-004   1.8948140182833091E-006
 chl          50   1.8871616917199477E-005   8.7640147744666550E-004   2.1533072915600981E-002
 chl2c          51   2.0700971146093840E-002   2.0700971146093840E-002  0.22275920000000002        2.3048900490467493E-004   1.8154243974264354E-016
 chl          51   1.7914111668205700E-005   8.6537542329679512E-004   2.0700971146093840E-002
 chl2c          52   3.7581825176985564E-002   3.7581825176985564E-002  0.63698869999999996        2.3048900490467493E-004   1.6313741259002707E-016
 chl          52   3.2521082873903611E-005   8.6534069914781411E-004   3.7581825176985564E-002
 chl2c          53   3.7925801262726190E-002   3.7925801262726190E-002  0.75269794999999995        2.3048900490467493E-004   1.4619142702335368E-016
 chl          53   3.2818739380424511E-005   8.6534069914770808E-004   3.7925801262726190E-002
 chl2c          54   3.7082433371327092E-002   3.7082433371327092E-002  0.51861124999999997        2.3048900490467493E-004   1.2004401141723537E-016
 chl          54   3.2088938814652918E-005   8.6534069901315458E-004   3.7082433371327092E-002
 chl2c          55   3.7357235588660491E-002   3.7357235588660491E-002  0.57808280000000001        2.3048900490467493E-004   3.7464322655490852E-006
 chl          55   3.3119557868158616E-005   8.8656340187580189E-004   3.7357235588660491E-002
 chl2c          56   3.7507394187257688E-002   3.7507394187257688E-002  0.61626080000000005        2.3048900490467493E-004   1.6356581729640891E-016
 chl          56   3.2456674709214323E-005   8.6534069914781671E-004   3.7507394187257688E-002
 chl2c          57   3.7727617852646313E-002   3.7727617852646313E-002  0.68163462500000005        2.3048900490467493E-004   3.7375794261119393E-006
 chl          57   3.3448573540530107E-005   8.8658058590317123E-004   3.7727617852646313E-002
 chl2c          58   3.7765358178394853E-002   3.7765358178394853E-002  0.69416802499999997        2.3048900490467493E-004   9.1672536843685741E-007
 chl          58   3.2896613468684229E-005   8.7107908028538237E-004   3.7765358178394853E-002
 chl2c          59   3.7173699120809672E-002   3.7173699120809672E-002  0.53705127500000005        2.3048900490467493E-004   1.6636521161816694E-016
 chl          59   3.2167914782116904E-005   8.6534069901344438E-004   3.7173699120809672E-002
 chl2c          60   3.7607757740906807E-002   3.7607757740906807E-002  0.64452155000000000        2.3048900490467493E-004   3.6226850462188354E-007
 chl          60   3.2628691746471736E-005   8.6760534811095025E-004   3.7607757740906807E-002
 chl2c          61   3.7805373434125003E-002   3.7805373434125003E-002  0.70794139999999994        2.3048900490467493E-004   1.4309440615807453E-016
 chl          61   3.2714528273944519E-005   8.6534069901329867E-004   3.7805373434125003E-002
 chl2c          62   3.7956103087269030E-002   3.7956103087269030E-002  0.76481592499999995        2.3048900490467493E-004   1.1690425409904818E-016
 chl          62   3.2844960777351997E-005   8.6534069901313506E-004   3.7956103087269030E-002
 chl2c          63   3.7855601011927406E-002   3.7855601011927406E-002  0.72597904999999996        2.3048900490467493E-004   1.9163307192807812E-006
 chl          63   3.3208419267998071E-005   8.7723925602277138E-004   3.7855601011927406E-002
 chl2c          64   2.5708982294816416E-002   2.5708982294816416E-002  0.48435739999999999        1.3271360667207416E-004   9.7442984912238304E-017
 chl          64   2.2247921435893046E-005   8.6537542329626917E-004   2.5708982294816416E-002
 chl2c          65   3.7953597170552002E-002   3.7953597170552002E-002  0.76379975000000000        2.3048900490467493E-004   1.2910702419123378E-016
 chl          65   3.2842792310731897E-005   8.6534069914760139E-004   3.7953597170552002E-002
 chl2c          66   3.1840477731474713E-002   3.1840477731474713E-002  0.35213202499999996        1.3455047642130797E-004   7.6004196049834235E-017
 chl          66   2.7553966894826068E-005   8.6537542329613430E-004   3.1840477731474713E-002
 chl2c          67   3.7937587124568600E-002   3.7937587124568600E-002  0.75736760000000003        2.3048900490467493E-004   1.3655602971233006E-016
 chl          67   3.2828938161250561E-005   8.6534069901325779E-004   3.7937587124568600E-002
 chl2c          68   3.7855407263856986E-002   3.7855407263856986E-002  0.72590779999999999        2.3048900490467493E-004   5.8972335310165301E-007
 chl          68   3.2897452089631919E-005   8.6902914186954866E-004   3.7855407263856986E-002
 chl2c          69   2.3653812264108429E-002   2.1732330561541505E-002  0.45524217500000003        2.3048900490467493E-004   2.8753725771304320E-006
 chl          69   2.0832541203843808E-005   8.8072658103634607E-004   2.3653812264108429E-002
 chl2c          70   3.2658010878182209E-002   3.2658010878182209E-002  0.48694062500000002        1.3455047642130797E-004   9.5758573845436972E-017
 chl          70   2.8261439987720719E-005   8.6537542329625779E-004   3.2658010878182209E-002
 chl2c          71   4.3481058864416305E-002   4.3481058864416305E-002  0.23986107500000001        8.8202501723447083E-005   8.3633054301664626E-017
 chl          71   3.7627439720160475E-005   8.6537542329618211E-004   4.3481058864416305E-002
 chl2c          72   3.7549776402781669E-002   3.7549776402781669E-002  0.62790522500000001        2.3048900490467493E-004   1.6407860495888967E-016
 chl          72   3.2493349765227403E-005   8.6534069914781997E-004   3.7549776402781669E-002
 chl2c          73   3.1852614277819484E-002   3.1852614277819484E-002  0.35362212500000001        1.3455047642130797E-004   9.2204219898458321E-017
 chl          73   2.7564469563759751E-005   8.6537542329623556E-004   3.1852614277819484E-002
 chl2c          74   3.7616827685877569E-002   3.7616827685877569E-002  0.64719590000000005        2.3048900490467493E-004   3.9730467444679834E-007
 chl          74   3.2644797293320891E-005   8.6782430368461620E-004   3.7616827685877569E-002
 chl2c          75   3.7826830779512356E-002   3.7826830779512356E-002  0.71554212500000003        2.3048900490467493E-004   1.2954337412408049E-016
 chl          75   3.2733096193281334E-005   8.6534069914760410E-004   3.7826830779512356E-002
 chl2c          76   3.7257729557919804E-002   3.7257729557919804E-002  0.55513977500000000        2.3048900490467493E-004   3.4684248030642428E-006
 chl          76   3.2985658695481050E-005   8.8533732696197945E-004   3.7257729557919804E-002
 chl2c          77   3.7138172437479272E-002   3.7138172437479272E-002  0.52973029999999999        2.3048900490467493E-004   1.1390718387553930E-016
 chl          77   3.2137172967312708E-005   8.6534072244439167E-004   3.7138172437479272E-002
 chl2c          78   4.7518626973312182E-002   4.7515248899399322E-002  0.45117492500000000        8.8202501723447083E-005   2.3423296346018488E-006
 chl          78   4.1703527433296301E-005   8.7762484081701673E-004   4.7518626973312182E-002
 prod   4.0003382546292470E-007   185.25986532250857        10.000000000000000     
 chl2c           1   3.7477407714772232E-002   3.7477407714772232E-002  0.60826437499999997        1.9342580144075558E-004   1.4514601844930652E-016
 chl           1   3.2760917690795524E-005   8.7415111365566408E-004   3.7477407714772232E-002
 chl2c           2   3.2640259920490348E-002   3.2640259920490348E-002  0.48302390000000001        1.1515480063000496E-004   1.7049383612924217E-006
 chl           2   2.8847366487446110E-005   8.8379708242877070E-004   3.2640259920490348E-002
 chl2c           3   3.7922212503796585E-002   3.7922212503796585E-002  0.75128689999999998        1.9342580144075558E-004   1.5648082061025048E-016
 chl           3   3.3149744292483247E-005   8.7415111365573563E-004   3.7922212503796585E-002
 chl2c           4   3.7976509103863923E-002   3.7976509103863923E-002  0.77318742499999993        1.9342580144075558E-004   2.8664874735933874E-006
 chl           4   3.3835395449811328E-005   8.9095591586033226E-004   3.7976509103863923E-002
 chl2c           5   4.6454740195874193E-002   2.5710500362372445E-002  0.48489679999999996        1.0716455429067916E-004   2.7528865288769821E-006
 chl           5   4.1288566668515919E-005   8.8879125132170910E-004   4.6454740195874193E-002
 chl2c           6   3.1261039902252048E-002   3.1261039902252048E-002  0.29222855000000003        1.1515480063000496E-004   1.0180146010864317E-016
 chl           6   2.7328025447346500E-005   8.7418798391853195E-004   3.1261039902252048E-002
 chl2c           7   4.3064391842467263E-002   4.3064391842467263E-002  0.22770740000000000        7.6248796918907037E-005   1.5093944193675796E-006
 chl           7   3.8011274001342190E-005   8.8266134444415817E-004   4.3064391842467263E-002
 chl2c           8   4.7969800906495587E-002   4.7969800906495587E-002  0.49578364999999996        7.6248796918907037E-005   7.3260216557222118E-017
 chl           8   4.1934623543415938E-005   8.7418798391839002E-004   4.7969800906495587E-002
 chl2c           9   2.4803669054600401E-002   2.4803669054600401E-002  0.28700202499999999        1.0716455429067916E-004   5.3164546443582575E-007
 chl           9   2.1765869135779266E-005   8.7752618726955208E-004   2.4803669054600401E-002
 chl2c          10   5.3872072098731266E-002   2.5387016219684602E-002  0.39094662499999999        1.0716455429067916E-004   3.3479298362728788E-006
 chl          10   4.8035458715547829E-005   8.9165790073033235E-004   5.3872072098731266E-002
 chl2c          11   2.1820572217820047E-002   2.1820572217820047E-002  0.49737575000000001        1.9342580144075558E-004   1.4384146164392346E-016
 chl          11   1.9075282035050648E-005   8.7418798391879823E-004   2.1820572217820047E-002
 chl2c          12   4.5290941298723353E-002   4.5290941298723353E-002  0.30768942500000002        7.6248796918907037E-005   7.2636766700879242E-017
 chl          12   3.9592796663695194E-005   8.7418798391834752E-004   4.5290941298723353E-002
 chl2c          13   3.7935816987997487E-002   3.7935816987997487E-002  0.75666275000000005        1.9342580144075558E-004   1.3021984937205543E-016
 chl          13   3.3161636662352690E-005   8.7415111352009891E-004   3.7935816987997487E-002
 chl2c          14   4.6856526101924839E-002   4.6856526101924839E-002  0.39804095000000000        7.6248796918907037E-005   8.0638241209224801E-017
 chl          14   4.0961412086461474E-005   8.7418798391839816E-004   4.6856526101924839E-002
 chl2c          15   3.4409673819228950E-002   2.0954299823745293E-002  0.25607262500000000        1.9342580144075558E-004   3.8444569984721678E-006
 chl          15   3.0772343503604443E-005   8.9429337997409667E-004   3.4409673819228950E-002
 chl2c          16   3.7823443882273475E-002   3.7823443882273475E-002  0.71433214999999994        1.9342580144075558E-004   1.6287430528664041E-016
 chl          16   3.3063405591986102E-005   8.7415111365577586E-004   3.7823443882273475E-002
 chl2c          17   3.7542254757581245E-002   3.7542254757581245E-002  0.62580860000000005        1.9342580144075558E-004   1.6279313423289492E-016
 chl          17   3.2817603805488472E-005   8.7415111365577532E-004   3.7542254757581245E-002
 chl2c          18   2.5694475239060960E-002   2.5694475239060960E-002  0.47925950000000000        1.0716455429067916E-004   1.5012111798930378E-016
 chl          18   2.2461801507087202E-005   8.7418798391883791E-004   2.5694475239060960E-002
 chl2c          19   3.7570220750293731E-002   3.7570220750293731E-002  0.63367130000000005        1.9342580144075558E-004   1.3383841074335341E-006
 chl          19   3.3159026538474454E-005   8.8258801455711995E-004   3.7570220750293731E-002
 chl2c          20   3.7020645196759419E-002   3.7020645196759419E-002  0.50678202500000002        1.9342580144075558E-004   1.4333967180646005E-016
 chl          20   3.2361638221982808E-005   8.7415111352018163E-004   3.7020645196759419E-002
 chl2c          21   3.7838475073783531E-002   3.7838475073783531E-002  0.71973185000000006        1.9342580144075558E-004   4.5735312509506845E-007
 chl          21   3.3185881027428456E-005   8.7704065670504163E-004   3.7838475073783531E-002
 chl2c          22   3.7613353106285476E-002   3.7613353106285476E-002  0.64616892500000001        1.9342580144075558E-004   3.6431999111224313E-006
 chl          22   3.3633147269603855E-005   8.9418104189130387E-004   3.7613353106285476E-002
 chl2c          23   3.2286562315070731E-002   3.2286562315070731E-002  0.41564179999999995        1.1515480063000496E-004   9.6053817108629545E-017
 chl          23   2.8224524817870554E-005   8.7418798391849552E-004   3.2286562315070731E-002
 chl2c          24   3.7348402796863071E-002   3.7348402796863071E-002  0.57597492500000003        1.9342580144075558E-004   1.1644881230418807E-016
 chl          24   3.2648147893071782E-005   8.7415111352001195E-004   3.7348402796863071E-002
 chl2c          25   4.5426679235459781E-002   4.5426679235459781E-002  0.31406487500000002        7.6248796918907037E-005   7.6328583557239356E-017
 chl          25   3.9711457136953108E-005   8.7418798391837083E-004   4.5426679235459781E-002
 chl2c          26   4.7955660680174553E-002   4.7955660680174553E-002  0.49427735000000000        7.6248796918907037E-005   7.0169336812208691E-017
 chl          26   4.1922262327473420E-005   8.7418798391833202E-004   4.7955660680174553E-002
 chl2c          27   4.5333133499525620E-002   4.5333133499525620E-002  0.30964730000000001        7.6248796918907037E-005   8.0025926973378311E-017
 chl          27   3.9629680578653732E-005   8.7418798391839447E-004   4.5333133499525620E-002
 chl2c          28   3.1209236063453518E-002   3.1209236063453518E-002  0.28776342500000002        1.1515480063000496E-004   7.9589314835189863E-017
 chl          28   2.7282739153943592E-005   8.7418798391839165E-004   3.1209236063453518E-002
 chl2c          29   3.7743217595736761E-002   3.7743217595736761E-002  0.68676297499999994        1.9342580144075558E-004   3.3264524799712248E-006
 chl          29   3.3702649612893232E-005   8.9294585252053542E-004   3.7743217595736761E-002
 chl2c          30   2.5380056985171612E-002   2.5380056985171612E-002  0.38930277499999999        1.0716455429067916E-004   1.6449872335236479E-016
 chl          30   2.2186940847614698E-005   8.7418798391892876E-004   2.5380056985171612E-002
 chl2c          31   3.7576959810037038E-002   3.7576959810037038E-002  0.63559385000000002        1.9342580144075558E-004   3.4733784066292564E-006
 chl          31   3.3575631301915051E-005   8.9351643857433062E-004   3.7576959810037038E-002
 chl2c          32   3.3702691726129434E-002   2.0893126428578448E-002  0.24722667500000001        1.9342580144075558E-004   3.7739632144253977E-006
 chl          32   3.0127017514448948E-005   8.9390538177969050E-004   3.3702691726129434E-002
 chl2c          33   3.7458922634011876E-002   3.7458922634011876E-002  0.60343137499999999        1.9342580144075558E-004   1.6655991819297725E-006
 chl          33   3.3134989173565816E-005   8.8456866464920640E-004   3.7458922634011876E-002
 chl2c          34   4.2823918977514766E-002   2.5350269098008315E-002  0.38241020000000003        1.0716455429067916E-004   2.5839666604810977E-006
 chl          34   3.8019224636648404E-005   8.8780348796687367E-004   4.2823918977514766E-002
 chl2c          35   2.5740370148566064E-002   2.5740370148566064E-002  0.49574644999999995        1.0716455429067916E-004   1.1894503867258767E-016
 chl          35   2.2501922285494531E-005   8.7418798391864080E-004   2.5740370148566064E-002
 chl2c          36   3.7770393924465726E-002   3.7770393924465726E-002  0.69587337500000002        1.9342580144075558E-004   1.2406537138774636E-016
 chl          36   3.3017031912279811E-005   8.7415111365553094E-004   3.7770393924465726E-002
 chl2c          37   2.1353674699533250E-002   2.1353674699533250E-002  0.33194060000000003        1.9342580144075558E-004   1.0894056462704983E-016
 chl          37   1.8667125834838117E-005   8.7418798391857792E-004   2.1353674699533250E-002
 chl2c          38   2.1543295686358745E-002   2.1543295686358745E-002  0.38455722500000000        1.9342580144075558E-004   1.6789456546475767E-016
 chl          38   1.8832890223027763E-005   8.7418798391895002E-004   2.1543295686358745E-002
 chl2c          39   2.5670077108751441E-002   2.5670077108751441E-002  0.47091117500000002        1.0716455429067916E-004   1.3528352975184263E-016
 chl          39   2.2440472954738126E-005   8.7418798391874413E-004   2.5670077108751441E-002
 chl2c          40   3.7687445774703773E-002   3.7687445774703773E-002  0.66875547499999999        1.9342580144075558E-004   1.6318770577603165E-016
 chl          40   3.2944522694799039E-005   8.7415111365577781E-004   3.7687445774703773E-002
 chl2c          41   2.5582381488167241E-002   2.5582381488167241E-002  0.44304987499999998        1.0716455429067916E-004   9.8131512365533312E-017
 chl          41   2.2363810496975120E-005   8.7418798391850950E-004   2.5582381488167241E-002
 chl2c          42   3.7949995630725070E-002   3.7949995630725070E-002  0.76234377499999995        1.9342580144075558E-004   1.3772196477268467E-016
 chl          42   3.3174030938683010E-005   8.7415111352014639E-004   3.7949995630725070E-002
 chl2c          43   2.1185090152268007E-002   2.1185090152268007E-002  0.29539925000000000        1.9342580144075558E-004   1.6717886183585689E-016
 chl          43   1.8519751249352277E-005   8.7418798391894557E-004   2.1185090152268007E-002
 chl2c          44   3.7536352708156646E-002   3.7536352708156646E-002  0.62417262500000004        1.9342580144075558E-004   1.1770444389991753E-016
 chl          44   3.2812444517315335E-005   8.7415111352001965E-004   3.7536352708156646E-002
 chl2c          45   4.6544927192009838E-002   4.6544927192009838E-002  0.37662252499999999        7.6248796918907037E-005   1.3522702799621448E-006
 chl          45   4.1058588277266560E-005   8.8212810190655766E-004   4.6544927192009838E-002
 chl2c          46   3.7083195475449568E-002   3.7083195475449568E-002  0.51876034999999998        1.9342580144075558E-004   3.5509251898949161E-006
 chl          46   3.3142780379133840E-005   8.9374122036154019E-004   3.7083195475449568E-002
 chl2c          47   3.7519784612651236E-002   3.7519784612651236E-002  0.61962282499999999        1.9342580144075558E-004   1.5021639879895228E-016
 chl          47   3.2797961498188093E-005   8.7415111352022522E-004   3.7519784612651236E-002
 chl2c          48   3.7823212136301673E-002   3.7823212136301673E-002  0.71424949999999998        1.9342580144075558E-004   1.4448261713681843E-016
 chl          48   3.3063203005858433E-005   8.7415111352018890E-004   3.7823212136301673E-002
 chl2c          49   3.7152990741888416E-002   3.7152990741888416E-002  0.53276120000000005        1.9342580144075558E-004   1.3448636331410167E-016
 chl          49   3.2477328227624687E-005   8.7415111352012590E-004   3.7152990741888416E-002
 chl2c          50   2.1533072915600981E-002   2.1533072915600981E-002  0.38132569999999999        1.9342580144075558E-004   2.1229598265430159E-006
 chl          50   1.9073261404183447E-005   8.8576588575821108E-004   2.1533072915600981E-002
 chl2c          51   2.0700971146093840E-002   2.0700971146093840E-002  0.22275920000000002        1.9342580144075558E-004   1.7838607487121552E-016
 chl          51   1.8096540231369507E-005   8.7418798391901659E-004   2.0700971146093840E-002
 chl2c          52   3.7581825176985564E-002   3.7581825176985564E-002  0.63698869999999996        1.9342580144075558E-004   1.5983673702564425E-016
 chl          52   3.2852194331677889E-005   8.7415111365575678E-004   3.7581825176985564E-002
 chl2c          53   3.7925801262726190E-002   3.7925801262726190E-002  0.75269794999999995        1.9342580144075558E-004   1.4318625808450377E-016
 chl          53   3.3152881410095020E-005   8.7415111365565172E-004   3.7925801262726190E-002
 chl2c          54   3.7082433371327092E-002   3.7082433371327092E-002  0.51861124999999997        1.9342580144075558E-004   1.1751580367882234E-016
 chl          54   3.2415650423577472E-005   8.7415111352001857E-004   3.7082433371327092E-002
 chl2c          55   3.7357235588660491E-002   3.7357235588660491E-002  0.57808280000000001        1.9342580144075558E-004   3.6653131715614176E-006
 chl          55   3.3405642785335209E-005   8.9422148772365904E-004   3.7357235588660491E-002
 chl2c          56   3.7507394187257688E-002   3.7507394187257688E-002  0.61626080000000005        1.9342580144075558E-004   1.6025780854088371E-016
 chl          56   3.2787130399116861E-005   8.7415111365575938E-004   3.7507394187257688E-002
 chl2c          57   3.7727617852646313E-002   3.7727617852646313E-002  0.68163462500000005        1.9342580144075558E-004   3.5033554970440563E-006
 chl          57   3.3715605197384880E-005   8.9365846868648727E-004   3.7727617852646313E-002
 chl2c          58   3.7765358178394853E-002   3.7765358178394853E-002  0.69416802499999997        1.9342580144075558E-004   1.1729715112789702E-006
 chl          58   3.3292415899579098E-005   8.8155964898607318E-004   3.7765358178394853E-002
 chl2c          59   3.7173699120809672E-002   3.7173699120809672E-002  0.53705127500000005        1.9342580144075558E-004   1.6300945044863164E-016
 chl          59   3.2495430480124596E-005   8.7415111352030610E-004   3.7173699120809672E-002
 chl2c          60   3.7607757740906807E-002   3.7607757740906807E-002  0.64452155000000000        1.9342580144075558E-004   5.3721233807189816E-007
 chl          60   3.3002546031431441E-005   8.7754623018999694E-004   3.7607757740906807E-002
 chl2c          61   3.7805373434125003E-002   3.7805373434125003E-002  0.70794139999999994        1.9342580144075558E-004   1.4014439452444491E-016
 chl          61   3.3047609284485905E-005   8.7415111352016157E-004   3.7805373434125003E-002
 chl2c          62   3.7956103087269030E-002   3.7956103087269030E-002  0.76481592499999995        1.9342580144075558E-004   1.1443505028507897E-016
 chl          62   3.3179369778616102E-005   8.7415111351999916E-004   3.7956103087269030E-002
 chl2c          63   3.7855601011927406E-002   3.7855601011927406E-002  0.72597904999999996        1.9342580144075558E-004   2.0303177238538874E-006
 chl          63   3.3565704742561300E-005   8.8667736993491494E-004   3.7855601011927406E-002
 chl2c          64   2.5708982294816416E-002   2.5708982294816416E-002  0.48435739999999999        1.0716455429067916E-004   9.5485160894664245E-017
 chl          64   2.2474483400901788E-005   8.7418798391849281E-004   2.5708982294816416E-002
 chl2c          65   3.7953597170552002E-002   3.7953597170552002E-002  0.76379975000000000        1.9342580144075558E-004   1.2641058901231241E-016
 chl          65   3.3177179233871998E-005   8.7415111365554568E-004   3.7953597170552002E-002
 chl2c          66   3.1840477731474713E-002   3.1840477731474713E-002  0.35213202499999996        1.1515480063000496E-004   7.5937990429350502E-017
 chl          66   2.7834563035075585E-005   8.7418798391836845E-004   3.1840477731474713E-002
 chl2c          67   3.7937587124568600E-002   3.7937587124568600E-002  0.75736760000000003        1.9342580144075558E-004   1.3372364020058575E-016
 chl          67   3.3163184029208255E-005   8.7415111352012113E-004   3.7937587124568600E-002
 chl2c          68   3.7855407263856986E-002   3.7855407263856986E-002  0.72590779999999999        1.9342580144075558E-004   8.4233834347275062E-007
 chl          68   3.3292954971920537E-005   8.7947686680173382E-004   3.7855407263856986E-002
 chl2c          69   2.6983646279257336E-002   2.1732330561541505E-002  0.45524217500000003        1.9342580144075558E-004   2.7740961744695833E-006
 chl          69   2.3991365324752604E-005   8.8910761268002042E-004   2.6983646279257336E-002
 chl2c          70   3.2658010878182209E-002   3.2658010878182209E-002  0.48694062500000002        1.1515480063000496E-004   9.5646467813818451E-017
 chl          70   2.8549240688386319E-005   8.7418798391849302E-004   3.2658010878182209E-002
 chl2c          71   4.3481058864416305E-002   4.3481058864416305E-002  0.23986107500000001        7.6248796918907037E-005   8.3561372035430995E-017
 chl          71   3.8010619187322092E-005   8.7418798391841670E-004   4.3481058864416305E-002
 chl2c          72   3.7549776402781669E-002   3.7549776402781669E-002  0.62790522500000001        1.9342580144075558E-004   1.6076182746566654E-016
 chl          72   3.2824178860016475E-005   8.7415111365576263E-004   3.7549776402781669E-002
 chl2c          73   3.1852614277819484E-002   3.1852614277819484E-002  0.35362212500000001        1.1515480063000496E-004   9.2126638902083268E-017
 chl          73   2.7845172658059713E-005   8.7418798391847080E-004   3.1852614277819484E-002
 chl2c          74   3.7616827685877569E-002   3.7616827685877569E-002  0.64719590000000005        1.9342580144075558E-004   6.0656648512641397E-007
 chl          74   3.3027005375878088E-005   8.7798486495652497E-004   3.7616827685877569E-002
 chl2c          75   3.7826830779512356E-002   3.7826830779512356E-002  0.71554212500000003        1.9342580144075558E-004   1.2683891752462622E-016
 chl          75   3.3066366251970705E-005   8.7415111365554839E-004   3.7826830779512356E-002
 chl2c          76   3.7257729557919804E-002   3.7257729557919804E-002  0.55513977500000000        1.9342580144075558E-004   3.3485516138243381E-006
 chl          76   3.3269972269028189E-005   8.9296832264852959E-004   3.7257729557919804E-002
 chl2c          77   3.7138172437479272E-002   3.7138172437479272E-002  0.52973029999999999        1.9342580144075558E-004   6.9224692465693567E-009
 chl          77   3.2465992741609751E-005   8.7419467924182426E-004   3.7138172437479272E-002
 chl2c          78   5.2142857655141671E-002   4.7515248899399322E-002  0.45117492500000000        7.6248796918907037E-005   2.2476826086242600E-006
 chl          78   4.6198249872462965E-005   8.8599382446595684E-004   5.2142857655141671E-002
 prod   3.9962968078382215E-007   150.78518829044992        10.000000000000000     
 chl2c           1   3.7477407714772232E-002   3.7477407714772232E-002  0.60826437499999997        1.6346794149316548E-004   1.4221254048808203E-016
 chl           1   3.2406218656508895E-005   8.6468677084449309E-004   3.7477407714772232E-002
 chl2c           2   3.2640259920490348E-002   3.2640259920490348E-002  0.48302390000000001        9.9015042012554459E-005   1.6934797650512295E-006
 chl           2   2.8517415024680050E-005   8.7368835585705223E-004   3.2640259920490348E-002
 chl2c           3   3.7922212503796585E-002   3.7922212503796585E-002  0.75128689999999998        1.6346794149316548E-004   1.5335974649705283E-016
 chl           3   3.2790835473188803E-005   8.6468677084455305E-004   3.7922212503796585E-002
 chl2c           4   3.7976509103863923E-002   3.7976509103863923E-002  0.77318742499999993        1.6346794149316548E-004   3.0095484295612609E-006
 chl           4   3.3464993754252868E-005   8.8120247342186517E-004   3.7976509103863923E-002
 chl2c           5   5.3114989131670204E-002   2.5710500362372445E-002  0.48489679999999996        8.8422229192534500E-005   2.6371421216666326E-006
 chl           5   4.6656513523251640E-005   8.7840578123045030E-004   5.3114989131670204E-002
 chl2c           6   3.1261039902252048E-002   3.1261039902252048E-002  0.29222855000000003        9.9015042012554459E-005   1.0351407330325987E-016
 chl           6   2.7029762189862448E-005   8.6464693031261639E-004   3.1261039902252048E-002
 chl2c           7   4.3064391842467263E-002   4.3064391842467263E-002  0.22770740000000000        6.6129899301376033E-005   1.5806601118072061E-006
 chl           7   3.7591773054484575E-005   8.7292009584154977E-004   4.3064391842467263E-002
 chl2c           8   4.7969800906495587E-002   4.7969800906495587E-002  0.49578364999999996        6.6129899301376033E-005   7.4630066556204475E-017
 chl           8   4.1476941105613273E-005   8.6464693039818065E-004   4.7969800906495587E-002
 chl2c           9   2.4803669054600401E-002   2.4803669054600401E-002  0.28700202499999999        8.8422229192534500E-005   8.8503974172975632E-007
 chl           9   2.1572358433540487E-005   8.6972449060069223E-004   2.4803669054600401E-002
 chl2c          10   6.1491731726518367E-002   2.5387016219684602E-002  0.39094662499999999        8.8422229192534500E-005   3.2260395966647364E-006
 chl          10   5.4183497003003022E-005   8.8115093658415120E-004   6.1491731726518367E-002
 chl2c          11   2.1820572217820047E-002   2.1820572217820047E-002  0.49737575000000001        1.6346794149316548E-004   1.4128383720927944E-016
 chl          11   1.8867090785808034E-005   8.6464693031285329E-004   2.1820572217820047E-002
 chl2c          12   4.5290941298723353E-002   4.5290941298723353E-002  0.30768942500000002        6.6129899301376033E-005   7.3996764247497125E-017
 chl          12   3.9160673364901704E-005   8.6464693031243218E-004   4.5290941298723353E-002
 chl2c          13   3.7935816987997487E-002   3.7935816987997487E-002  0.75666275000000005        1.6346794149316548E-004   1.2754226392006555E-016
 chl          13   3.2802599085649824E-005   8.6468677071138971E-004   3.7935816987997487E-002
 chl2c          14   4.6856526101924839E-002   4.6856526101924839E-002  0.39804095000000000        6.6129899301376033E-005   8.2056365140806381E-017
 chl          14   4.0514351459136031E-005   8.6464693031248260E-004   4.6856526101924839E-002
 chl2c          15   3.8541590021341880E-002   2.0954299823745293E-002  0.25607262500000000        1.6346794149316548E-004   3.7082939509111186E-006
 chl          15   3.4058807012782878E-005   8.8368972307378293E-004   3.8541590021341880E-002
 chl2c          16   3.7823443882273475E-002   3.7823443882273475E-002  0.71433214999999994        1.6346794149316548E-004   1.5964995418315033E-016
 chl          16   3.2705431552784704E-005   8.6468677084459240E-004   3.7823443882273475E-002
 chl2c          17   3.7542254757581245E-002   3.7542254757581245E-002  0.62580860000000005        1.6346794149316548E-004   1.5957008290748382E-016
 chl          17   3.2462291036557947E-005   8.6468677084459197E-004   3.7542254757581245E-002
 chl2c          18   2.5694475239060960E-002   2.5694475239060960E-002  0.47925950000000000        8.8422229192534500E-005   1.4748821705840080E-016
 chl          18   2.2216649141454676E-005   8.6464693031289221E-004   2.5694475239060960E-002
 chl2c          19   3.7570220750293731E-002   3.7570220750293731E-002  0.63367130000000005        1.6346794149316548E-004   1.5343238836392259E-006
 chl          19   3.2841098941853862E-005   8.7412579127837844E-004   3.7570220750293731E-002
 chl2c          20   3.7020645196759419E-002   3.7020645196759419E-002  0.50678202500000002        1.6346794149316548E-004   1.4043662416425456E-016
 chl          20   3.2011262144841007E-005   8.6468677071147027E-004   3.7020645196759419E-002
 chl2c          21   3.7838475073783531E-002   3.7838475073783531E-002  0.71973185000000006        1.6346794149316548E-004   6.9368913593567314E-007
 chl          21   3.2882531715095796E-005   8.6902370275166113E-004   3.7838475073783531E-002
 chl2c          22   4.0834496500407338E-002   3.7613353106285476E-002  0.64616892500000001        1.6346794149316548E-004   3.5627101931164393E-006
 chl          22   3.6082823971237917E-005   8.8363582420755401E-004   4.0834496500407338E-002
 chl2c          23   3.2286562315070731E-002   3.2286562315070731E-002  0.41564179999999995        9.9015042012554459E-005   9.7762681387974837E-017
 chl          23   2.7916476996071749E-005   8.6464693031258050E-004   3.2286562315070731E-002
 chl2c          24   3.7348402796863071E-002   3.7348402796863071E-002  0.57597492500000003        1.6346794149316548E-004   1.1401634451724969E-016
 chl          24   3.2294669805644603E-005   8.6468677071130514E-004   3.7348402796863071E-002
 chl2c          25   4.5426679235459781E-002   4.5426679235459781E-002  0.31406487500000002        6.6129899301376033E-005   7.7746473146542966E-017
 chl          25   3.9278038755228870E-005   8.6464693031245560E-004   4.5426679235459781E-002
 chl2c          26   4.7955660680174553E-002   4.7955660680174553E-002  0.49427735000000000        6.6129899301376033E-005   7.1490038112075892E-017
 chl          26   4.1464714798216786E-005   8.6464693031241668E-004   4.7955660680174553E-002
 chl2c          27   4.5333133499525620E-002   4.5333133499525620E-002  0.30964730000000001        6.6129899301376033E-005   8.1435057431356517E-017
 chl          27   3.9197154721810624E-005   8.6464693031247869E-004   4.5333133499525620E-002
 chl2c          28   3.1209236063453518E-002   3.1209236063453518E-002  0.28776342500000002        9.9015042012554459E-005   8.0992016146542771E-017
 chl          28   2.6984970159662507E-005   8.6464693031247598E-004   3.1209236063453518E-002
 chl2c          29   3.7743217595736761E-002   3.7743217595736761E-002  0.68676297499999994        1.6346794149316548E-004   3.1968610498733379E-006
 chl          29   3.3284809823157184E-005   8.8187525980606453E-004   3.7743217595736761E-002
 chl2c          30   2.5380056985171612E-002   2.5380056985171612E-002  0.38930277499999999        8.8422229192534500E-005   1.6170396457567766E-016
 chl          30   2.1944788363397166E-005   8.6464693031298100E-004   2.5380056985171612E-002
 chl2c          31   3.7709276239946264E-002   3.7576959810037038E-002  0.63559385000000002        1.6346794149316548E-004   3.2765223384104711E-006
 chl          31   3.3265093341834757E-005   8.8214616292731486E-004   3.7709276239946264E-002
 chl2c          32   3.8770984154476412E-002   2.0893126428578448E-002  0.24722667500000001        1.6346794149316548E-004   3.7582961176072759E-006
 chl          32   3.4269383353823397E-005   8.8389253203588665E-004   3.8770984154476412E-002
 chl2c          33   3.7458922634011876E-002   3.7458922634011876E-002  0.60343137499999999        1.6346794149316548E-004   1.8417406975938129E-006
 chl          33   3.2807318210703995E-005   8.7582119035414200E-004   3.7458922634011876E-002
 chl2c          34   4.7485083217361723E-002   2.5350269098008315E-002  0.38241020000000003        8.8422229192534500E-005   2.3970131554891387E-006
 chl          34   4.1647909559277765E-005   8.7707352998910308E-004   4.7485083217361723E-002
 chl2c          35   2.5740370148566064E-002   2.5740370148566064E-002  0.49574644999999995        8.8422229192534500E-005   1.1671400064062280E-016
 chl          35   2.2256332034070298E-005   8.6464693031269976E-004   2.5740370148566064E-002
 chl2c          36   3.7770393924465726E-002   3.7770393924465726E-002  0.69587337500000002        1.6346794149316548E-004   1.2149625556003312E-016
 chl          36   3.2659559956065470E-005   8.6468677084435388E-004   3.7770393924465726E-002
 chl2c          37   2.1353674699533250E-002   2.1353674699533250E-002  0.33194060000000003        1.6346794149316548E-004   1.0685371485555969E-016
 chl          37   1.8463389279846072E-005   8.6464693031263818E-004   2.1353674699533250E-002
 chl2c          38   2.1543295686358745E-002   2.1543295686358745E-002  0.38455722500000000        1.6346794149316548E-004   1.6506367946244143E-016
 chl          38   1.8627344484035423E-005   8.6464693031300193E-004   2.1543295686358745E-002
 chl2c          39   2.5670077108751441E-002   2.5670077108751441E-002  0.47091117500000002        8.8422229192534500E-005   1.3283305433134739E-016
 chl          39   2.2195553372974824E-005   8.6464693031280048E-004   2.5670077108751441E-002
 chl2c          40   3.7687445774703773E-002   3.7687445774703773E-002  0.66875547499999999        1.6346794149316548E-004   1.5995833899461829E-016
 chl          40   3.2587835788309355E-005   8.6468677084459435E-004   3.7687445774703773E-002
 chl2c          41   2.5582381488167241E-002   2.5582381488167241E-002  0.44304987499999998        8.8422229192534500E-005   9.6208996733947760E-017
 chl          41   2.2119727623828962E-005   8.6464693031257161E-004   2.5582381488167241E-002
 chl2c          42   3.7949995630725070E-002   3.7949995630725070E-002  0.76234377499999995        1.6346794149316548E-004   1.3491449882255554E-016
 chl          42   3.2814859170444758E-005   8.6468677071143579E-004   3.7949995630725070E-002
 chl2c          43   2.1185090152268007E-002   2.1185090152268007E-002  0.29539925000000000        1.6346794149316548E-004   1.6435552384607876E-016
 chl          43   1.8317623168562648E-005   8.6464693031299759E-004   2.1185090152268007E-002
 chl2c          44   3.7536352708156646E-002   3.7536352708156646E-002  0.62417262500000004        1.6346794149316548E-004   1.1524926480484433E-016
 chl          44   3.2457187607496810E-005   8.6468677071131284E-004   3.7536352708156646E-002
 chl2c          45   4.6544927192009838E-002   4.6544927192009838E-002  0.37662252499999999        6.6129899301376033E-005   1.0870457872759516E-006
 chl          45   4.0542957445446709E-005   8.7104997024050647E-004   4.6544927192009838E-002
 chl2c          46   3.8469633205723795E-002   3.7083195475449568E-002  0.51876034999999998        1.6346794149316548E-004   3.3961215497440080E-006
 chl          46   3.3956126016061245E-005   8.8267350599560701E-004   3.8469633205723795E-002
 chl2c          47   3.7519784612651236E-002   3.7519784612651236E-002  0.61962282499999999        1.6346794149316548E-004   1.4719828994215221E-016
 chl          47   3.2442861394504884E-005   8.6468677071151233E-004   3.7519784612651236E-002
 chl2c          48   3.7823212136301673E-002   3.7823212136301673E-002  0.71424949999999998        1.6346794149316548E-004   1.4156029792691983E-016
 chl          48   3.2705231160073850E-005   8.6468677071147720E-004   3.7823212136301673E-002
 chl2c          49   3.7152990741888416E-002   3.7152990741888416E-002  0.53276120000000005        1.6346794149316548E-004   1.3173459928718574E-016
 chl          49   3.2125699586874625E-005   8.6468677071141584E-004   3.7152990741888416E-002
 chl2c          50   2.6442169811848756E-002   2.1533072915600981E-002  0.38132569999999999        1.6346794149316548E-004   2.3222550690799825E-006
 chl          50   2.3188342282481555E-005   8.7694551723553496E-004   2.6442169811848756E-002
 chl2c          51   2.0700971146093840E-002   2.0700971146093840E-002  0.22275920000000002        1.6346794149316548E-004   1.7544856102108961E-016
 chl          51   1.7899031155969405E-005   8.6464693031306676E-004   2.0700971146093840E-002
 chl2c          52   3.7581825176985564E-002   3.7581825176985564E-002  0.63698869999999996        1.6346794149316548E-004   1.5666122588036112E-016
 chl          52   3.2496507054732954E-005   8.6468677084457386E-004   3.7581825176985564E-002
 chl2c          53   3.7925801262726190E-002   3.7925801262726190E-002  0.75269794999999995        1.6346794149316548E-004   1.4028580169547015E-016
 chl          53   3.2793938625555890E-005   8.6468677084447151E-004   3.7925801262726190E-002
 chl2c          54   3.7082433371327092E-002   3.7082433371327092E-002  0.51861124999999997        1.6346794149316548E-004   1.1506403197626448E-016
 chl          54   3.2064689561970204E-005   8.6468677071131165E-004   3.7082433371327092E-002
 chl2c          55   4.0566257194051790E-002   3.7357235588660491E-002  0.57808280000000001        1.6346794149316548E-004   3.5658720087699751E-006
 chl          55   3.5844525764964983E-005   8.8360445957584783E-004   4.0566257194051790E-002
 chl2c          56   3.7507394187257688E-002   3.7507394187257688E-002  0.61626080000000005        1.6346794149316548E-004   1.5707550259707885E-016
 chl          56   3.2432147562574482E-005   8.6468677084457636E-004   3.7507394187257688E-002
 chl2c          57   3.7727617852646313E-002   3.7727617852646313E-002  0.68163462500000005        1.6346794149316548E-004   3.2259994763268039E-006
 chl          57   3.3274981655395440E-005   8.8197939730407459E-004   3.7727617852646313E-002
 chl2c          58   3.7765358178394853E-002   3.7765358178394853E-002  0.69416802499999997        1.6346794149316548E-004   1.4618375325491650E-006
 chl          58   3.2995980947090523E-005   8.7371026090167362E-004   3.7765358178394853E-002
 chl2c          59   3.7173699120809672E-002   3.7173699120809672E-002  0.53705127500000005        1.6346794149316548E-004   1.5978293593914728E-016
 chl          59   3.2143605848177230E-005   8.6468677071159115E-004   3.7173699120809672E-002
 chl2c          60   3.7607757740906807E-002   3.7607757740906807E-002  0.64452155000000000        1.6346794149316548E-004   7.4700939713372035E-007
 chl          60   3.2694581551792788E-005   8.6935737506706374E-004   3.7607757740906807E-002
 chl2c          61   3.7805373434125003E-002   3.7805373434125003E-002  0.70794139999999994        1.6346794149316548E-004   1.3729553705538483E-016
 chl          61   3.2689806270294017E-005   8.6468677071145075E-004   3.7805373434125003E-002
 chl2c          62   3.7956103087269030E-002   3.7956103087269030E-002  0.76481592499999995        1.6346794149316548E-004   1.1203915870187287E-016
 chl          62   3.2820140207315587E-005   8.6468677071129278E-004   3.7956103087269030E-002
 chl2c          63   3.7855601011927406E-002   3.7855601011927406E-002  0.72597904999999996        1.6346794149316548E-004   2.1292567419566316E-006
 chl          63   3.3211431986445412E-005   8.7731884050609255E-004   3.7855601011927406E-002
 chl2c          64   2.5708982294816416E-002   2.5708982294816416E-002  0.48435739999999999        8.8422229192534500E-005   9.3604248429708033E-017
 chl          64   2.2229192622672848E-005   8.6464693031255535E-004   2.5708982294816416E-002
 chl2c          65   3.7953597170552002E-002   3.7953597170552002E-002  0.76379975000000000        1.6346794149316548E-004   1.2379993517261233E-016
 chl          65   3.2817973379332561E-005   8.6468677084436830E-004   3.7953597170552002E-002
 chl2c          66   3.1840477731474713E-002   3.1840477731474713E-002  0.35213202499999996        9.9015042012554459E-005   7.7349806295675207E-017
 chl          66   2.7530771330201634E-005   8.6464693031245321E-004   3.1840477731474713E-002
 chl2c          67   3.7937587124568600E-002   3.7937587124568600E-002  0.75736760000000003        1.6346794149316548E-004   1.3098507610413046E-016
 chl          67   3.2804129699326033E-005   8.6468677071141118E-004   3.7937587124568600E-002
 chl2c          68   3.7855407263856986E-002   3.7855407263856986E-002  0.72590779999999999        1.6346794149316548E-004   1.1421879313734541E-006
 chl          68   3.3002506416797813E-005   8.7180428906143213E-004   3.7855407263856986E-002
 chl2c          69   3.0490928144806535E-002   2.1732330561541505E-002  0.45524217500000003        1.6346794149316548E-004   2.6710441693373897E-006
 chl          69   2.6795843295911254E-005   8.7881363166950174E-004   3.0490928144806535E-002
 chl2c          70   3.2658010878182209E-002   3.2658010878182209E-002  0.48694062500000002        9.9015042012554459E-005   9.7276698886813025E-017
 chl          70   2.8237648855935010E-005   8.6464693031257746E-004   3.2658010878182209E-002
 chl2c          71   4.3481058864416305E-002   4.3481058864416305E-002  0.23986107500000001        6.6129899301376033E-005   8.5089541402104168E-017
 chl          71   3.7595764073854732E-005   8.6464693031250135E-004   4.3481058864416305E-002
 chl2c          72   3.7549776402781669E-002   3.7549776402781669E-002  0.62790522500000001        1.6346794149316548E-004   1.5757139860017908E-016
 chl          72   3.2468794903657269E-005   8.6468677084457950E-004   3.7549776402781669E-002
 chl2c          73   3.1852614277819484E-002   3.1852614277819484E-002  0.35362212500000001        9.9015042012554459E-005   9.3780033351070672E-017
 chl          73   2.7541265157746498E-005   8.6464693031255567E-004   3.1852614277819484E-002
 chl2c          74   3.7616827685877569E-002   3.7616827685877569E-002  0.64719590000000005        1.6346794149316548E-004   8.5978253640591172E-007
 chl          74   3.2728924658164932E-005   8.7006073269842231E-004   3.7616827685877569E-002
 chl2c          75   3.7826830779512356E-002   3.7826830779512356E-002  0.71554212500000003        1.6346794149316548E-004   1.2422070446620997E-016
 chl          75   3.2708360158012998E-005   8.6468677084437090E-004   3.7826830779512356E-002
 chl2c          76   3.7257729557919804E-002   3.7257729557919804E-002  0.55513977500000000        1.6346794149316548E-004   3.2225573719135787E-006
 chl          76   3.2857371837711508E-005   8.8189409895824105E-004   3.7257729557919804E-002
 chl2c          77   3.7138172437479272E-002   3.7138172437479272E-002  0.52973029999999999        1.6346794149316548E-004   1.5041461137627512E-007
 chl          77   3.2147746212717786E-005   8.6562542265205210E-004   3.7138172437479272E-002
 chl2c          78   5.6784462974283557E-002   4.7515248899399322E-002  0.45117492500000000        6.6129899301376033E-005   2.1479093081265261E-006
 chl          78   4.9729399457575549E-005   8.7575714998127058E-004   5.6784462974283557E-002
 prod   4.0827242653401743E-007   124.76204519604121        10.000000000000000     
 chl2c           1   3.7477407714772232E-002   3.7477407714772232E-002  0.60826437499999997        1.3885530876592964E-004   1.3846542927009296E-016
 chl           1   3.2044778010611651E-005   8.5504254335021050E-004   3.7477407714772232E-002
 chl2c           2   3.6012290887571262E-002   3.2640259920490348E-002  0.48302390000000001        8.5381871360525836E-005   1.6612547705160183E-006
 chl           2   3.1102552479717399E-005   8.6366492420096672E-004   3.6012290887571262E-002
 chl2c           3   3.7922212503796585E-002   3.7922212503796585E-002  0.75128689999999998        1.3885530876592964E-004   1.4936657360041839E-016
 chl           3   3.2425105027915430E-005   8.5504254332916863E-004   3.7922212503796585E-002
 chl2c           4   4.2130380441968998E-002   3.7976509103863923E-002  0.77318742499999993        1.3885530876592964E-004   3.0935802712987371E-006
 chl           4   3.6710352508923933E-005   8.7135108023743836E-004   4.2130380441968998E-002
 chl2c           5   5.8935025718017960E-002   2.5710500362372445E-002  0.48489679999999996        7.4054197306970397E-005   2.4841158810485536E-006
 chl           5   5.1140989405992352E-005   8.6775205037973246E-004   5.8935025718017960E-002
 chl2c           6   3.1261039902252048E-002   3.1261039902252048E-002  0.29222855000000003        8.5381871360525836E-005   1.0523747891918188E-016
 chl           6   2.6728257549541354E-005   8.5500218908635367E-004   3.1261039902252048E-002
 chl2c           7   4.5335728933884802E-002   4.3064391842467263E-002  0.22770740000000000        5.7466332866414609E-005   1.6264617651540443E-006
 chl           7   3.9126466096382008E-005   8.6303820444669482E-004   4.5335728933884802E-002
 chl2c           8   4.7969800906495587E-002   4.7969800906495587E-002  0.49578364999999996        5.7466332866414609E-005   7.6007042036503596E-017
 chl           8   4.1014293359896675E-005   8.5500236784061636E-004   4.7969800906495587E-002
 chl2c           9   3.0983099348788498E-002   2.4803669054600401E-002  0.28700202499999999        7.4054197306970397E-005   1.2860487541481504E-006
 chl           9   2.6695902096946958E-005   8.6162787642453278E-004   3.0983099348788498E-002
 chl2c          10   6.8558332685261444E-002   2.5387016219684602E-002  0.39094662499999999        7.4054197306970397E-005   3.0783509952752423E-006
 chl          10   5.9676020531120487E-005   8.7044153779354582E-004   6.8558332685261444E-002
 chl2c          11   2.1820572217820047E-002   2.1820572217820047E-002  0.49737575000000001        1.3885530876592964E-004   1.3796537129957128E-016
 chl          11   1.8656637013357437E-005   8.5500218908655652E-004   2.1820572217820047E-002
 chl2c          12   4.5290941298723353E-002   4.5290941298723353E-002  0.30768942500000002        5.7466332866414609E-005   7.5363902899675927E-017
 chl          12   3.8723853956181649E-005   8.5500218908616903E-004   4.5290941298723353E-002
 chl2c          13   3.7935816987997487E-002   3.7935816987997487E-002  0.75666275000000005        1.3885530876592964E-004   1.2412921737308133E-016
 chl          13   3.2436737435729837E-005   8.5504254319848964E-004   3.7935816987997487E-002
 chl2c          14   4.6856526101924839E-002   4.6856526101924839E-002  0.39804095000000000        5.7466332866414609E-005   8.3485287142416685E-017
 chl          14   4.0062432390121311E-005   8.5500218908621923E-004   4.6856526101924839E-002
 chl2c          15   4.2595376733491189E-002   2.0954299823745293E-002  0.25607262500000000        1.3885530876592964E-004   3.5473702043521760E-006
 chl          15   3.7180726561144466E-005   8.7288174004834242E-004   4.2595376733491189E-002
 chl2c          16   3.7823443882273475E-002   3.7823443882273475E-002  0.71433214999999994        1.3885530876592964E-004   1.5552087223587317E-016
 chl          16   3.2340653654568642E-005   8.5504254332920680E-004   3.7823443882273475E-002
 chl2c          17   3.7542254757581245E-002   3.7542254757581245E-002  0.62580860000000005        1.3885530876592964E-004   1.5544271345848656E-016
 chl          17   3.2100224990235258E-005   8.5504254332920626E-004   3.7542254757581245E-002
 chl2c          18   2.5694475239060960E-002   2.5694475239060960E-002  0.47925950000000000        7.4054197306970397E-005   1.4406635636559887E-016
 chl          18   2.1968832576828417E-005   8.5500218908659436E-004   2.5694475239060960E-002
 chl2c          19   3.7570220750293731E-002   3.7570220750293731E-002  0.63367130000000005        1.3885530876592964E-004   1.7091744864384519E-006
 chl          19   3.2503531487910273E-005   8.6514081734950018E-004   3.7570220750293731E-002
 chl2c          20   3.7020645196759419E-002   3.7020645196759419E-002  0.50678202500000002        1.3885530876592964E-004   1.3672933243391311E-016
 chl          20   3.1654226619889004E-005   8.5504254319856748E-004   3.7020645196759419E-002
 chl2c          21   3.7838475073783531E-002   3.7838475073783531E-002  0.71973185000000006        1.3885530876592964E-004   9.6260004677124432E-007
 chl          21   3.2577942545460256E-005   8.6097398169282871E-004   3.7838475073783531E-002
 chl2c          22   4.5981258896076772E-002   3.7613353106285476E-002  0.64616892500000001        1.3885530876592964E-004   3.4369431794980288E-006
 chl          22   4.0144494755770899E-005   8.7306210659656640E-004   4.5981258896076772E-002
 chl2c          23   3.2286562315070731E-002   3.2286562315070731E-002  0.41564179999999995        8.5381871360525836E-005   9.9477368130807837E-017
 chl          23   2.7605081457457290E-005   8.5500218908631789E-004   3.2286562315070731E-002
 chl2c          24   3.7348402796863071E-002   3.7348402796863071E-002  0.57597492500000003        1.3885530876592964E-004   1.1092171219610656E-016
 chl          24   3.1934473311828332E-005   8.5504254319840789E-004   3.7348402796863071E-002
 chl2c          25   4.5426679235459781E-002   4.5426679235459781E-002  0.31406487500000002        5.7466332866414609E-005   7.9171395068641803E-017
 chl          25   3.8839910189234399E-005   8.5500218908619256E-004   4.5426679235459781E-002
 chl2c          26   4.7955660680174553E-002   4.7955660680174553E-002  0.49427735000000000        5.7466332866414609E-005   7.2817931259484939E-017
 chl          26   4.1002194860622014E-005   8.5500218908615342E-004   4.7955660680174553E-002
 chl2c          27   4.5333133499525620E-002   4.5333133499525620E-002  0.30964730000000001        5.7466332866414609E-005   8.2854971792577074E-017
 chl          27   3.8759928380232044E-005   8.5500218908621532E-004   4.5333133499525620E-002
 chl2c          28   3.1209236063453518E-002   3.1209236063453518E-002  0.28776342500000002        8.5381871360525836E-005   8.2405490736895842E-017
 chl          28   2.6683965153961128E-005   8.5500218908621251E-004   3.1209236063453518E-002
 chl2c          29   4.1187991160305450E-002   3.7743217595736761E-002  0.68676297499999994        1.3885530876592964E-004   3.0420285379530488E-006
 chl          29   3.5876705197827217E-005   8.7104770558470602E-004   4.1187991160305450E-002
 chl2c          30   2.5380056985171612E-002   2.5380056985171612E-002  0.38930277499999999        7.4054197306970397E-005   1.5805761676803752E-016
 chl          30   2.1700004281466429E-005   8.5500218908668066E-004   2.5380056985171612E-002
 chl2c          31   4.0762623742944128E-002   3.7576959810037038E-002  0.63559385000000002        1.3885530876592964E-004   3.0239913893508006E-006
 chl          31   3.5501340908662557E-005   8.7092874915363418E-004   4.0762623742944128E-002
 chl2c          32   4.3543516123326055E-002   2.0893126428578448E-002  0.24722667500000001        1.3885530876592964E-004   3.6694096126577737E-006
 chl          32   3.8031558992365541E-005   8.7341497376212604E-004   4.3543516123326055E-002
 chl2c          33   3.7458922634011876E-002   3.7458922634011876E-002  0.60343137499999999        1.3885530876592964E-004   1.9852870392670080E-006
 chl          33   3.2456876159021707E-005   8.6646582113794103E-004   3.7458922634011876E-002
 chl2c          34   5.0183951345753604E-002   2.5350269098008315E-002  0.38241020000000003        7.4054197306970397E-005   2.1388486894958828E-006
 chl          34   4.3455768221398506E-005   8.6592958617387917E-004   5.0183951345753604E-002
 chl2c          35   2.5740370148566064E-002   2.5740370148566064E-002  0.49574644999999995        7.4054197306970397E-005   1.1383808138181172E-016
 chl          35   2.2008072824918401E-005   8.5500218908640744E-004   2.5740370148566064E-002
 chl2c          36   3.7770393924465726E-002   3.7770393924465726E-002  0.69587337500000002        1.3885530876592964E-004   1.1822429780223509E-016
 chl          36   3.2295293683712489E-005   8.5504254332897630E-004   3.7770393924465726E-002
 chl2c          37   2.1353674699533250E-002   2.1353674699533250E-002  0.33194060000000003        1.3885530876592964E-004   1.0417055911987121E-016
 chl          37   1.8257438613138690E-005   8.5500218908634781E-004   2.1353674699533250E-002
 chl2c          38   2.1543295686358745E-002   2.1543295686358745E-002  0.38455722500000000        1.3885530876592964E-004   1.6136677087225061E-016
 chl          38   1.8419564971978812E-005   8.5500218908670116E-004   2.1543295686358745E-002
 chl2c          39   2.5670077108751441E-002   2.5670077108751441E-002  0.47091117500000002        7.4054197306970397E-005   1.2966079578099924E-016
 chl          39   2.1947972122001873E-005   8.5500218908650535E-004   2.5670077108751441E-002
 chl2c          40   3.7687445774703773E-002   3.7687445774703773E-002  0.66875547499999999        1.3885530876592964E-004   1.5582264824211562E-016
 chl          40   3.2224369486784351E-005   8.5504254332920853E-004   3.7687445774703773E-002
 chl2c          41   2.5582381488167241E-002   2.5582381488167241E-002  0.44304987499999998        7.4054197306970397E-005   9.3743901251270851E-017
 chl          41   2.1872992174423400E-005   8.5500218908628330E-004   2.5582381488167241E-002
 chl2c          42   3.7949995630725070E-002   3.7949995630725070E-002  0.76234377499999995        1.3885530876592964E-004   1.3133211446417466E-016
 chl          42   3.2448860778468419E-005   8.5504254319853409E-004   3.7949995630725070E-002
 chl2c          43   2.1185090152268007E-002   2.1185090152268007E-002  0.29539925000000000        1.3885530876592964E-004   1.6066919378967640E-016
 chl          43   1.8113298456188611E-005   8.5500218908671763E-004   2.1185090152268007E-002
 chl2c          44   3.7536352708156646E-002   3.7536352708156646E-002  0.62417262500000004        1.3885530876592964E-004   1.1212519186224433E-016
 chl          44   3.2095178481974992E-005   8.5504254319841548E-004   3.7536352708156646E-002
 chl2c          45   4.6544927192009838E-002   4.6544927192009838E-002  0.37662252499999999        5.7466332866414609E-005   7.6749779468836028E-007
 chl          45   4.0010130838631147E-005   8.5960239391027582E-004   4.6544927192009838E-002
 chl2c          46   4.2353624438125216E-002   3.7083195475449568E-002  0.51876034999999998        1.3885530876592964E-004   3.2019309701691132E-006
 chl          46   3.6922141018719031E-005   8.7175871034742046E-004   4.2353624438125216E-002
 chl2c          47   3.7519784612651236E-002   3.7519784612651236E-002  0.61962282499999999        1.3885530876592964E-004   1.4334029803736344E-016
 chl          47   3.2081012055465330E-005   8.5504254319860847E-004   3.7519784612651236E-002
 chl2c          48   3.7823212136301673E-002   3.7823212136301673E-002  0.71424949999999998        1.3885530876592964E-004   1.3782779145124144E-016
 chl          48   3.2340455496962562E-005   8.5504254319857421E-004   3.7823212136301673E-002
 chl2c          49   3.7152990741888416E-002   3.7152990741888416E-002  0.53276120000000005        1.3885530876592964E-004   1.2822489328880534E-016
 chl          49   3.1767387691375147E-005   8.5504254319851490E-004   3.7152990741888416E-002
 chl2c          50   3.2290994728336610E-002   2.1533072915600981E-002  0.38132569999999999        1.3885530876592964E-004   2.4492966065474028E-006
 chl          50   2.8020783807176254E-005   8.6775845844683501E-004   3.2290994728336610E-002
 chl2c          51   2.0700971146093840E-002   2.0700971146093840E-002  0.22275920000000002        1.3885530876592964E-004   1.7160130723035379E-016
 chl          51   1.7699375646132176E-005   8.5500218908676415E-004   2.0700971146093840E-002
 chl2c          52   3.7581825176985564E-002   3.7581825176985564E-002  0.63698869999999996        1.3885530876592964E-004   1.5259645623632525E-016
 chl          52   3.2134059382282675E-005   8.5504254332918869E-004   3.7581825176985564E-002
 chl2c          53   3.7925801262726190E-002   3.7925801262726190E-002  0.75269794999999995        1.3885530876592964E-004   1.3658189955076439E-016
 chl          53   3.2428173569475004E-005   8.5504254332908981E-004   3.7925801262726190E-002
 chl2c          54   3.7082433371327092E-002   3.7082433371327092E-002  0.51861124999999997        1.3885530876592964E-004   1.1194437681806443E-016
 chl          54   3.1707058137805259E-005   8.5504254319841418E-004   3.7082433371327092E-002
 chl2c          55   4.5461783000057536E-002   3.7357235588660491E-002  0.57808280000000001        1.3885530876592964E-004   3.4257108702053991E-006
 chl          55   3.9685998190998198E-005   8.7295296339230622E-004   4.5461783000057536E-002
 chl2c          56   3.7507394187257688E-002   3.7507394187257688E-002  0.61626080000000005        1.3885530876592964E-004   1.5300178997489122E-016
 chl          56   3.2070417719523328E-005   8.5504254332919108E-004   3.7507394187257688E-002
 chl2c          57   3.9044925171828816E-002   3.7727617852646313E-002  0.68163462500000005        1.3885530876592964E-004   2.8755105874471616E-006
 chl          57   3.3976244753563135E-005   8.7018337476741357E-004   3.9044925171828816E-002
 chl2c          58   3.7765358178394853E-002   3.7765358178394853E-002  0.69416802499999997        1.3885530876592964E-004   1.7524432545337844E-006
 chl          58   3.2680820794400192E-005   8.6536504274694085E-004   3.7765358178394853E-002
 chl2c          59   3.7173699120809672E-002   3.7173699120809672E-002  0.53705127500000005        1.3885530876592964E-004   1.5565100352031059E-016
 chl          59   3.1785094236360016E-005   8.5504254319869011E-004   3.7173699120809672E-002
 chl2c          60   3.7607757740906807E-002   3.7607757740906807E-002  0.64452155000000000        1.3885530876592964E-004   9.7603745122162836E-007
 chl          60   3.2382323157871904E-005   8.6105434365338189E-004   3.7607757740906807E-002
 chl2c          61   3.7805373434125003E-002   3.7805373434125003E-002  0.70794139999999994        1.3885530876592964E-004   1.3365909230231052E-016
 chl          61   3.2325202647685084E-005   8.5504254319854851E-004   3.7805373434125003E-002
 chl2c          62   3.7956103087269030E-002   3.7956103087269030E-002  0.76481592499999995        1.3885530876592964E-004   1.0899191418256674E-016
 chl          62   3.2454082913639006E-005   8.5504254319839618E-004   3.7956103087269030E-002
 chl2c          63   3.7855601011927406E-002   3.7855601011927406E-002  0.72597904999999996        1.3885530876592964E-004   2.1858064708082493E-006
 chl          63   3.2835522858731951E-005   8.6738876100226898E-004   3.7855601011927406E-002
 chl2c          64   2.5708982294816416E-002   2.5708982294816416E-002  0.48435739999999999        7.4054197306970397E-005   9.1194104126914200E-017
 chl          64   2.1981236141248128E-005   8.5500218908626747E-004   2.5708982294816416E-002
 chl2c          65   3.7953597170552002E-002   3.7953597170552002E-002  0.76379975000000000        1.3885530876592964E-004   1.2047398315557251E-016
 chl          65   3.2451940253192754E-005   8.5504254332899028E-004   3.7953597170552002E-002
 chl2c          66   3.1840477731474713E-002   3.1840477731474713E-002  0.35213202499999996        8.5381871360525836E-005   7.8768667841726251E-017
 chl          66   2.7223678161960968E-005   8.5500218908619006E-004   3.1840477731474713E-002
 chl2c          67   3.7937587124568600E-002   3.7937587124568600E-002  0.75736760000000003        1.3885530876592964E-004   1.2749258097389800E-016
 chl          67   3.2438250977806195E-005   8.5504254319851035E-004   3.7937587124568600E-002
 chl2c          68   3.7855407263856986E-002   3.7855407263856986E-002  0.72590779999999999        1.3885530876592964E-004   1.4652804232208770E-006
 chl          68   3.2702182970270370E-005   8.6387085317381500E-004   3.7855407263856986E-002
 chl2c          69   3.3970388171032498E-002   2.1732330561541505E-002  0.45524217500000003        1.3885530876592964E-004   2.5486671253660350E-006
 chl          69   2.9497461440648742E-005   8.6832865412477249E-004   3.3970388171032498E-002
 chl2c          70   3.2658010878182209E-002   3.2658010878182209E-002  0.48694062500000002        8.5381871360525836E-005   9.8917819013848987E-017
 chl          70   2.7922670792050457E-005   8.5500218908631442E-004   3.2658010878182209E-002
 chl2c          71   4.3481058864416305E-002   4.3481058864416305E-002  0.23986107500000001        5.7466332866414609E-005   8.6624419268141674E-017
 chl          71   3.7176400512863540E-005   8.5500218908623853E-004   4.3481058864416305E-002
 chl2c          72   3.7549776402781669E-002   3.7549776402781669E-002  0.62790522500000001        1.3885530876592964E-004   1.5348699313506774E-016
 chl          72   3.2106656316876999E-005   8.5504254332919411E-004   3.7549776402781669E-002
 chl2c          73   3.1852614277819484E-002   3.1852614277819484E-002  0.35362212500000001        8.5381871360525836E-005   9.5439571689168401E-017
 chl          73   2.7234054935656966E-005   8.5500218908629284E-004   3.1852614277819484E-002
 chl2c          74   3.7616827685877569E-002   3.7616827685877569E-002  0.64719590000000005        1.3885530876592964E-004   1.1394064121965985E-006
 chl          74   3.2426636157214455E-005   8.6202474137361503E-004   3.7616827685877569E-002
 chl2c          75   3.7826830779512356E-002   3.7826830779512356E-002  0.71554212500000003        1.3885530876592964E-004   1.2088492174224916E-016
 chl          75   3.2343549595789674E-005   8.5504254332899288E-004   3.7826830779512356E-002
 chl2c          76   4.0983524426095409E-002   3.7257729557919804E-002  0.55513977500000000        1.3885530876592964E-004   3.0721967214323856E-006
 chl          76   3.5701789359911571E-005   8.7112540612000649E-004   4.0983524426095409E-002
 chl2c          77   3.7138172437479272E-002   3.7138172437479272E-002  0.52973029999999999        1.3885530876592964E-004   3.3644907729123980E-007
 chl          77   3.1831924794491299E-005   8.5712146573930527E-004   3.7138172437479272E-002
 chl2c          78   5.9752810020567787E-002   4.7515248899399322E-002  0.45117492500000000        5.7466332866414609E-005   1.9789800579822368E-006
 chl          78   5.1691781929520485E-005   8.6509374055759761E-004   5.9752810020567787E-002
 prod   4.1701035325808004E-007   104.38206191434243        10.000000000000000     
 chl2c           1   3.7477407714772232E-002   3.7477407714772232E-002  0.60826437499999997        1.1840502599666164E-004   1.4430318483024881E-016
 chl           1   2.8784524468310057E-005   7.6805003930312515E-004   3.7477407714772232E-002
 chl2c           2   4.5581783841710174E-002   3.2640259920490348E-002  0.48302390000000001        7.3767143729990204E-005   1.8564032318036332E-006
 chl           2   3.5385925844857568E-005   7.7631726673402452E-004   4.5581783841710174E-002
 chl2c           3   3.7922212503796585E-002   3.7922212503796585E-002  0.75128689999999998        1.1840502599666164E-004   1.5566142552786232E-016
 chl           3   2.9126155134302033E-005   7.6804999527351067E-004   3.7922212503796585E-002
 chl2c           4   5.2477478498461995E-002   3.7976509103863923E-002  0.77318742499999993        1.1840502599666164E-004   3.3330157623735732E-006
 chl           4   4.1129725595569657E-005   7.8375956262408987E-004   5.2477478498461995E-002
 chl2c           5   6.7732180540469270E-002   2.5710500362372445E-002  0.48489679999999996        6.2671203755489826E-005   2.4670329399105100E-006
 chl           5   5.2761087522216889E-005   7.7896632149163851E-004   6.7732180540469270E-002
 chl2c           6   3.1261039902252048E-002   3.1261039902252048E-002  0.29222855000000003        7.3767143729990204E-005   1.2612220169546432E-016
 chl           6   2.3998631141873596E-005   7.6768499118753670E-004   3.1261039902252048E-002
 chl2c           7   5.7153146257377586E-002   4.3064391842467263E-002  0.22770740000000000        5.0002640832212518E-005   1.9077333775855198E-006
 chl           7   4.4346421896868839E-005   7.7592267094384851E-004   5.7153146257377586E-002
 chl2c           8   4.7969800906495587E-002   4.7969800906495587E-002  0.49578364999999996        5.0002640832212518E-005   5.9394160250596048E-008
 chl           8   3.6841585374835507E-005   7.6801622434598835E-004   4.7969800906495587E-002
 chl2c           9   4.6930907781993929E-002   2.4803669054600401E-002  0.28700202499999999        6.2671203755489826E-005   1.7580938029188295E-006
 chl           9   3.6401213747132921E-005   7.7563412828547597E-004   4.6930907781993929E-002
 chl2c          10   7.9394125254386425E-002   2.5387016219684602E-002  0.39094662499999999        6.2671203755489826E-005   3.1218543487219665E-006
 chl          10   6.2050867740549151E-005   7.8155490147075997E-004   7.9394125254386425E-002
 chl2c          11   2.1820572217820047E-002   2.1820572217820047E-002  0.49737575000000001        1.1840502599666164E-004   1.4374033386838222E-016
 chl          11   1.6751325790746336E-005   7.6768499118763504E-004   2.1820572217820047E-002
 chl2c          12   4.5290941298723353E-002   4.5290941298723353E-002  0.30768942500000002        5.0002640832212518E-005   8.8724164229374556E-017
 chl          12   3.4769175871776281E-005   7.6768499118732918E-004   4.5290941298723353E-002
 chl2c          13   3.7935816987997487E-002   3.7935816987997487E-002  0.75666275000000005        1.1840502599666164E-004   1.2936461243020324E-016
 chl          13   2.9136604054211138E-005   7.6804999516498268E-004   3.7935816987997487E-002
 chl2c          14   4.6856526101924839E-002   4.6856526101924839E-002  0.39804095000000000        5.0002640832212518E-005   1.0065919540724495E-016
 chl          14   3.5971051827628139E-005   7.6768499118739554E-004   4.6856526101924839E-002
 chl2c          15   4.9281218393652911E-002   2.0954299823745293E-002  0.25607262500000000        1.1840502599666164E-004   3.6128692477672349E-006
 chl          15   3.8628289864271491E-005   7.8383390515455596E-004   4.9281218393652911E-002
 chl2c          16   3.7823443882273475E-002   3.7823443882273475E-002  0.71433214999999994        1.1840502599666164E-004   1.6207337363664012E-016
 chl          16   2.9050295895009386E-005   7.6804999527354634E-004   3.7823443882273475E-002
 chl2c          17   3.7542254757581245E-002   3.7542254757581245E-002  0.62580860000000005        1.1840502599666164E-004   1.6199194470894500E-016
 chl          17   2.8834328589118533E-005   7.6804999527354590E-004   3.7542254757581245E-002
 chl2c          18   2.5694475239060960E-002   2.5694475239060960E-002  0.47925950000000000        6.2671203755489826E-005   1.5008948466605776E-016
 chl          18   1.9725262997470324E-005   7.6768499118767017E-004   2.5694475239060960E-002
 chl2c          19   3.7570220750293731E-002   3.7570220750293731E-002  0.63367130000000005        1.1840502599666164E-004   1.9665564576997562E-006
 chl          19   2.9224866667390855E-005   7.7787316879585728E-004   3.7570220750293731E-002
 chl2c          20   3.7020645196759419E-002   3.7020645196759419E-002  0.50678202500000002        1.1840502599666164E-004   1.4249421294894725E-016
 chl          20   2.8433706364378309E-005   7.6804999516505554E-004   3.7020645196759419E-002
 chl2c          21   3.7838475073783531E-002   3.7838475073783531E-002  0.71973185000000006        1.1840502599666164E-004   1.3038686342877272E-006
 chl          21   2.9327594860049100E-005   7.7507338239348833E-004   3.7838475073783531E-002
 chl2c          22   5.4575117772631840E-002   3.7613353106285476E-002  0.64616892500000001        1.1840502599666164E-004   3.5290456214503130E-006
 chl          22   4.2818845910095276E-005   7.8458549715797296E-004   5.4575117772631840E-002
 chl2c          23   3.2286562315070731E-002   3.2286562315070731E-002  0.41564179999999995        7.3767143729990204E-005   1.1606953617920325E-016
 chl          23   2.4785909306319129E-005   7.6768499118748097E-004   3.2286562315070731E-002
 chl2c          24   3.7348402796863071E-002   3.7348402796863071E-002  0.57597492500000003        1.1840502599666164E-004   1.1560114907944060E-016
 chl          24   2.8685440587547654E-005   7.6804999516490624E-004   3.7348402796863071E-002
 chl2c          25   4.5426679235459781E-002   4.5426679235459781E-002  0.31406487500000002        5.0002640832212518E-005   9.3074593545957775E-017
 chl          25   3.4873379848544664E-005   7.6768499118735325E-004   4.5426679235459781E-002
 chl2c          26   4.7955660680174553E-002   4.7955660680174553E-002  0.49427735000000000        5.0002640832212518E-005   8.5808251478900246E-017
 chl          26   3.6814840946641577E-005   7.6768499118731303E-004   4.7955660680174553E-002
 chl2c          27   4.5333133499525620E-002   4.5333133499525620E-002  0.30964730000000001        5.0002640832212518E-005   9.9916962240720868E-017
 chl          27   3.4801566191080166E-005   7.6768499118739142E-004   4.5333133499525620E-002
 chl2c          28   3.1209236063453518E-002   3.1209236063453518E-002  0.28776342500000002        7.3767143729990204E-005   9.9387517931871617E-017
 chl          28   2.3958862112337438E-005   7.6768499118738838E-004   3.1209236063453518E-002
 chl2c          29   4.8533974333913890E-002   3.7743217595736761E-002  0.68676297499999994        1.1840502599666164E-004   3.0918351976799102E-006
 chl          29   3.7982799765005622E-005   7.8260229635602975E-004   4.8533974333913890E-002
 chl2c          30   2.5380056985171612E-002   2.5380056985171612E-002  0.38930277499999999        6.2671203755489826E-005   1.6464542063788009E-016
 chl          30   1.9483888823006087E-005   7.6768499118775105E-004   2.5380056985171612E-002
 chl2c          31   4.6113521903276569E-002   3.7576959810037038E-002  0.63559385000000002        1.1840502599666164E-004   2.9436000670775827E-006
 chl          31   3.6055768039332470E-005   7.8189143988957718E-004   4.6113521903276569E-002
 chl2c          32   5.0709089585483529E-002   2.0893126428578448E-002  0.24722667500000001        1.1840502599666164E-004   3.7767641401163187E-006
 chl          32   3.9779417608265337E-005   7.8446325764154471E-004   5.0709089585483529E-002
 chl2c          33   3.7458922634011876E-002   3.7458922634011876E-002  0.60343137499999999        1.1840502599666164E-004   2.2243839526345451E-006
 chl          33   2.9171910993563970E-005   7.7877068912485269E-004   3.7458922634011876E-002
 chl2c          34   5.3882943907125107E-002   2.5350269098008315E-002  0.38241020000000003        6.2671203755489826E-005   1.9653840062065507E-006
 chl          34   4.1848709203487837E-005   7.7665966573058857E-004   5.3882943907125107E-002
 chl2c          35   2.5740370148566064E-002   2.5740370148566064E-002  0.49574644999999995        6.2671203755489826E-005   1.1862170434804912E-016
 chl          35   1.9760495830664813E-005   7.6768499118749561E-004   2.5740370148566064E-002
 chl2c          36   3.7770393924465726E-002   3.7770393924465726E-002  0.69587337500000002        1.1840502599666164E-004   1.2321123847797525E-016
 chl          36   2.9009550875157735E-005   7.6804999527333058E-004   3.7770393924465726E-002
 chl2c          37   2.1353674699533250E-002   2.1353674699533250E-002  0.33194060000000003        1.1840502599666164E-004   1.0855314913439859E-016
 chl          37   1.6392895573530640E-005   7.6768499118743988E-004   2.1353674699533250E-002
 chl2c          38   2.1543295686358745E-002   2.1543295686358745E-002  0.38455722500000000        1.1840502599666164E-004   1.6808715935477408E-016
 chl          38   1.6538464759137838E-005   7.6768499118777013E-004   2.1543295686358745E-002
 chl2c          39   2.5670077108751441E-002   2.5670077108751441E-002  0.47091117500000002        6.2671203755489826E-005   1.3509623739478795E-016
 chl          39   1.9706532919016527E-005   7.6768499118758690E-004   2.5670077108751441E-002
 chl2c          40   3.7687445774703773E-002   3.7687445774703773E-002  0.66875547499999999        1.1840502599666164E-004   1.6238777541550652E-016
 chl          40   2.8945842549133331E-005   7.6804999527354807E-004   3.7687445774703773E-002
 chl2c          41   2.5582381488167241E-002   2.5582381488167241E-002  0.44304987499999998        6.2671203755489826E-005   9.7691966860450934E-017
 chl          41   1.9639210307295853E-005   7.6768499118737960E-004   2.5582381488167241E-002
 chl2c          42   3.7949995630725070E-002   3.7949995630725070E-002  0.76234377499999995        1.1840502599666164E-004   1.3687031186734303E-016
 chl          42   2.9147493960691083E-005   7.6804999516502431E-004   3.7949995630725070E-002
 chl2c          43   2.1185090152268007E-002   2.1185090152268007E-002  0.29539925000000000        1.1840502599666164E-004   1.6736166551260977E-016
 chl          43   1.6263475747835814E-005   7.6768499123402111E-004   2.1185090152268007E-002
 chl2c          44   3.7536352708156646E-002   3.7536352708156646E-002  0.62417262500000004        1.1840502599666164E-004   1.1685532298761393E-016
 chl          44   2.8829795516008192E-005   7.6804999516491329E-004   3.7536352708156646E-002
 chl2c          45   4.6544927192009838E-002   4.6544927192009838E-002  0.37662252499999999        5.0002640832212518E-005   5.2813360336234968E-007
 chl          45   3.5866473865397142E-005   7.7057750498649787E-004   4.6544927192009838E-002
 chl2c          46   4.9049453230129506E-002   3.7083195475449568E-002  0.51876034999999998        1.1840502599666164E-004   3.2070848593416715E-006
 chl          46   3.8406263451249258E-005   7.8301104134750118E-004   4.9049453230129506E-002
 chl2c          47   3.7519784612651236E-002   3.7519784612651236E-002  0.61962282499999999        1.1840502599666164E-004   1.4938257027603276E-016
 chl          47   2.8817070390342137E-005   7.6804999516509370E-004   3.7519784612651236E-002
 chl2c          48   3.7823212136301673E-002   3.7823212136301673E-002  0.71424949999999998        1.1840502599666164E-004   1.4363878367837247E-016
 chl          48   2.9050117898413612E-005   7.6804999516506193E-004   3.7823212136301673E-002
 chl2c          49   3.7152990741888416E-002   3.7152990741888416E-002  0.53276120000000005        1.1840502599666164E-004   1.3363250404530917E-016
 chl          49   2.8535354359672926E-005   7.6804999516500642E-004   3.7152990741888416E-002
 chl2c          50   4.0233196468088032E-002   2.1533072915600981E-002  0.38132569999999999        1.1840502599666164E-004   2.6628615165534730E-006
 chl          50   3.1383576793993746E-005   7.8004184477080797E-004   4.0233196468088032E-002
 chl2c          51   2.0700971146093840E-002   2.0700971146093840E-002  0.22275920000000002        1.1840502599666164E-004   1.7872921392292370E-016
 chl          51   1.5891824851868551E-005   7.6768499118782900E-004   2.0700971146093840E-002
 chl2c          52   3.7581825176985564E-002   3.7581825176985564E-002  0.63698869999999996        1.1840502599666164E-004   1.5902656572140575E-016
 chl          52   2.8864720649554371E-005   7.6804999527352942E-004   3.7581825176985564E-002
 chl2c          53   3.7925801262726190E-002   3.7925801262726190E-002  0.75269794999999995        1.1840502599666164E-004   1.4234059042660878E-016
 chl          53   2.9128911480578151E-005   7.6804999527343672E-004   3.7925801262726190E-002
 chl2c          54   3.7082433371327092E-002   3.7082433371327092E-002  0.51861124999999997        1.1840502599666164E-004   1.1666689187303482E-016
 chl          54   2.8481162771550952E-005   7.6804999516491221E-004   3.7082433371327092E-002
 chl2c          55   5.3747430185388419E-002   3.7357235588660491E-002  0.57808280000000001        1.1840502599666164E-004   3.5081547231723499E-006
 chl          55   4.2161273032397491E-005   7.8443328149778782E-004   5.3747430185388419E-002
 chl2c          56   3.7507394187257688E-002   3.7507394187257688E-002  0.61626080000000005        1.1840502599666164E-004   1.5944886761945877E-016
 chl          56   2.8807553928245758E-005   7.6804999527353170E-004   3.7507394187257688E-002
 chl2c          57   4.2406567441997021E-002   3.7727617852646313E-002  0.68163462500000005        1.1840502599666164E-004   2.6771276290989325E-006
 chl          57   3.3105988825965969E-005   7.8068070166838611E-004   4.2406567441997021E-002
 chl2c          58   3.7765358178394853E-002   3.7765358178394853E-002  0.69416802499999997        1.1840502599666164E-004   2.1347650253594613E-006
 chl          58   2.9400024058110064E-005   7.7849186334288478E-004   3.7765358178394853E-002
 chl2c          59   3.7173699120809672E-002   3.7173699120809672E-002  0.53705127500000005        1.1840502599666164E-004   1.6220894947776927E-016
 chl          59   2.8551259430477374E-005   7.6804999517776011E-004   3.7173699120809672E-002
 chl2c          60   3.7607757740906807E-002   3.7607757740906807E-002  0.64452155000000000        1.1840502599666164E-004   1.2688208926761769E-006
 chl          60   2.9142249846287254E-005   7.7489995673388874E-004   3.7607757740906807E-002
 chl2c          61   3.7805373434125003E-002   3.7805373434125003E-002  0.70794139999999994        1.1840502599666164E-004   1.3929504589045613E-016
 chl          61   2.9036416883292157E-005   7.6804999516503776E-004   3.7805373434125003E-002
 chl2c          62   3.7956103087269030E-002   3.7956103087269030E-002  0.76481592499999995        1.1840502599666164E-004   1.1359004887361707E-016
 chl          62   2.9152184792655243E-005   7.6804999516489518E-004   3.7956103087269030E-002
 chl2c          63   3.7855601011927406E-002   3.7855601011927406E-002  0.72597904999999996        1.1840502599666164E-004   2.3551430787331450E-006
 chl          63   2.9498373521332036E-005   7.7923405606577991E-004   3.7855601011927406E-002
 chl2c          64   2.5708982294816416E-002   2.5708982294816416E-002  0.48435739999999999        6.2671203755489826E-005   9.5035628301413233E-017
 chl          64   1.9736399846432255E-005   7.6768499118736475E-004   2.5708982294816416E-002
 chl2c          65   3.7953597170552002E-002   3.7953597170552002E-002  0.76379975000000000        1.1840502599666164E-004   1.2555560297853707E-016
 chl          65   2.9150260127449817E-005   7.6804999527336907E-004   3.7953597170552002E-002
 chl2c          66   3.1840477731474713E-002   3.1840477731474713E-002  0.35213202499999996        7.3767143729990204E-005   9.2615021625299391E-017
 chl          66   2.4443456866688201E-005   7.6768499118735065E-004   3.1840477731474713E-002
 chl2c          67   3.7937587124568600E-002   3.7937587124568600E-002  0.75736760000000003        1.1840502599666164E-004   1.3286940649025793E-016
 chl          67   2.9137963607596760E-005   7.6804999516500209E-004   3.7937587124568600E-002
 chl2c          68   3.7855407263856986E-002   3.7855407263856986E-002  0.72590779999999999        1.1840502599666164E-004   1.8779454291773297E-006
 chl          68   2.9434708855358319E-005   7.7755625900930532E-004   3.7855407263856986E-002
 chl2c          69   3.9946388866150893E-002   2.1732330561541505E-002  0.45524217500000003        1.1840502599666164E-004   2.5924036983182032E-006
 chl          69   3.1150063231907406E-005   7.7979672546328290E-004   3.9946388866150893E-002
 chl2c          70   3.2658010878182209E-002   3.2658010878182209E-002  0.48694062500000002        7.3767143729990204E-005   1.1875434174246542E-016
 chl          70   2.5071064793218453E-005   7.6768499118749583E-004   3.2658010878182209E-002
 chl2c          71   4.3481058864416305E-002   4.3481058864416305E-002  0.23986107500000001        5.0002640832212518E-005   1.0155481677581412E-016
 chl          71   3.3379756291148272E-005   7.6768499118740042E-004   4.3481058864416305E-002
 chl2c          72   3.7549776402781669E-002   3.7549776402781669E-002  0.62790522500000001        1.1840502599666164E-004   1.5995438066977862E-016
 chl          72   2.8840105588678739E-005   7.6804999527353452E-004   3.7549776402781669E-002
 chl2c          73   3.1852614277819484E-002   3.1852614277819484E-002  0.35362212500000001        7.3767143729990204E-005   1.1152455476634552E-016
 chl          73   2.4452773911165278E-005   7.6768499118745571E-004   3.1852614277819484E-002
 chl2c          74   3.7616827685877569E-002   3.7616827685877569E-002  0.64719590000000005        1.1840502599666164E-004   1.4953572681988093E-006
 chl          74   2.9188917708934292E-005   7.7595372881197650E-004   3.7616827685877569E-002
 chl2c          75   3.7826830779512356E-002   3.7826830779512356E-002  0.71554212500000003        1.1840502599666164E-004   1.2598383328244246E-016
 chl          75   2.9052897201410126E-005   7.6804999527334608E-004   3.7826830779512356E-002
 chl2c          76   4.8338287021419832E-002   3.7257729557919804E-002  0.55513977500000000        1.1840502599666164E-004   3.1346991178684170E-006
 chl          76   3.7835071594522404E-005   7.8271436424209233E-004   4.8338287021419832E-002
 chl2c          77   3.7138172437479272E-002   3.7138172437479272E-002  0.52973029999999999        1.1840502599666164E-004   5.7576996406305552E-007
 chl          77   2.8642719656875346E-005   7.7124741948716774E-004   3.7138172437479272E-002
 chl2c          78   6.9826404988134319E-002   4.7515248899399322E-002  0.45117492500000000        5.0002640832212518E-005   2.0654064006893341E-006
 chl          78   5.4258809104327016E-005   7.7705288011816268E-004   6.9826404988134319E-002
 prod   5.0512065275751225E-007   88.014911912783305        10.000000000000000     
 chl2c           1   3.7477407714772232E-002   3.7477407714772232E-002  0.60826437499999997        1.0127552368296053E-004   1.6579429836029265E-008
 chl           1   2.5510067471544480E-005   6.8067854814540276E-004   3.7477407714772232E-002
 chl2c           2   5.6069113479375758E-002   3.2640259920490348E-002  0.48302390000000001        6.3821679331961450E-005   2.0241777873266100E-006
 chl           2   3.8603866986084930E-005   6.8850503584803110E-004   5.6069113479375758E-002
 chl2c           3   3.7922212503796585E-002   3.7922212503796585E-002  0.75128689999999998        1.0127552368296053E-004   1.6113670851852353E-016
 chl           3   2.5809739344688756E-005   6.8059687556744776E-004   3.7922212503796585E-002
 chl2c           4   6.3362448109378258E-002   3.7976509103863923E-002  0.77318742499999993        1.0127552368296053E-004   3.4949418611412812E-006
 chl           4   4.4044599207910267E-005   6.9512148791787672E-004   6.3362448109378258E-002
 chl2c           5   7.7009472296990122E-002   2.5710500362372445E-002  0.48489679999999996        5.3433772760761591E-005   2.4459022480490740E-006
 chl           5   5.3141076873230720E-005   6.9005896662023634E-004   7.7009472296990122E-002
 chl2c           6   3.1261039902252048E-002   3.1261039902252048E-002  0.29222855000000003        6.3821679331961450E-005   1.4560765015479001E-016
 chl           6   2.1264727171673145E-005   6.8023095962784115E-004   3.1261039902252048E-002
 chl2c           7   6.9156246475432129E-002   4.3064391842467263E-002  0.22770740000000000        4.3549846295010388E-005   2.1626975227839177E-006
 chl           7   4.7596654930155169E-005   6.8824809552184068E-004   6.9156246475432129E-002
 chl2c           8   4.7969800906495587E-002   4.7969800906495587E-002  0.49578364999999996        4.3549846295010388E-005   2.1554695309990977E-007
 chl           8   3.2681351658392965E-005   6.8129012505381461E-004   4.7969800906495587E-002
 chl2c           9   6.1073472041720200E-002   2.4803669054600401E-002  0.28700202499999999        5.3433772760761591E-005   2.0727756314577346E-006
 chl           9   4.2039254323275352E-005   6.8833902704201440E-004   6.1073472041720200E-002
 chl2c          10   9.0759944043718316E-002   2.5387016219684602E-002  0.39094662499999999        5.3433772760761591E-005   3.1579562730518149E-006
 chl          10   6.2849099697227871E-005   6.9247618384332612E-004   9.0759944043718316E-002
 chl2c          11   2.1820572217820047E-002   2.1820572217820047E-002  0.49737575000000001        1.0127552368296053E-004   1.4864559269082340E-016
 chl          11   1.4843028779356678E-005   6.8023095962785665E-004   2.1820572217820047E-002
 chl2c          12   4.5290941298723353E-002   4.5290941298723353E-002  0.30768942500000002        4.3549846295010388E-005   1.0133730004485072E-016
 chl          12   3.0808300462068963E-005   6.8023095962762377E-004   4.5290941298723353E-002
 chl2c          13   3.7935816987997487E-002   3.7935816987997487E-002  0.75666275000000005        1.0127552368296053E-004   1.3394812045081745E-016
 chl          13   2.5818998510778922E-005   6.8059687547912290E-004   3.7935816987997487E-002
 chl2c          14   4.6856526101924839E-002   4.6856526101924839E-002  0.39804095000000000        4.3549846295010388E-005   1.1687809682202504E-016
 chl          14   3.1873259715132705E-005   6.8023095962769999E-004   4.6856526101924839E-002
 chl2c          15   5.6518602644425223E-002   2.0954299823745293E-002  0.25607262500000000        1.0127552368296053E-004   3.6725573388347563E-006
 chl          15   3.9256136604078443E-005   6.9457019047427767E-004   5.6518602644425223E-002
 chl2c          16   3.7823443882273475E-002   3.7823443882273475E-002  0.71433214999999994        1.0127552368296053E-004   1.6776372485007120E-016
 chl          16   2.5742517729477262E-005   6.8059687556748050E-004   3.7823443882273475E-002
 chl2c          17   3.7542254757581245E-002   3.7542254757581245E-002  0.62580860000000005        1.0127552368296053E-004   1.6767957064551280E-016
 chl          17   2.5551141289768154E-005   6.8059687556747996E-004   3.7542254757581245E-002
 chl2c          18   2.5694475239060960E-002   2.5694475239060960E-002  0.47925950000000000        5.3433772760761591E-005   1.5519145515324303E-016
 chl          18   1.7478177549001466E-005   6.8023095962788886E-004   2.5694475239060960E-002
 chl2c          19   3.9600990457747939E-002   3.7570220750293731E-002  0.63367130000000005        1.0127552368296053E-004   2.1389800795528343E-006
 chl          19   2.7306163339384088E-005   6.8953233299854581E-004   3.9600990457747939E-002
 chl2c          20   3.7020645196759419E-002   3.7020645196759419E-002  0.50678202500000002        1.0127552368296053E-004   1.4752489426911244E-016
 chl          20   2.5196135449138129E-005   6.8059687547918958E-004   3.7020645196759419E-002
 chl2c          21   3.7838475073783531E-002   3.7838475073783531E-002  0.71973185000000006        1.0127552368296053E-004   1.5481102091864721E-006
 chl          21   2.6017602583833188E-005   6.8759648831248860E-004   3.7838475073783531E-002
 chl2c          22   6.4211836181091164E-002   3.7613353106285476E-002  0.64616892500000001        1.0127552368296053E-004   3.6103116825484528E-006
 chl          22   4.4659542494159946E-005   6.9550327712495947E-004   6.4211836181091164E-002
 chl2c          23   3.2286562315070731E-002   3.2286562315070731E-002  0.41564179999999995        6.3821679331961450E-005   1.3146493538048329E-016
 chl          23   2.1962319266662408E-005   6.8023095962777154E-004   3.2286562315070731E-002
 chl2c          24   3.7348402796863071E-002   3.7348402796863071E-002  0.57597492500000003        1.0127552368296053E-004   1.1971191986602159E-016
 chl          24   2.5419206247678121E-005   6.8059687547905275E-004   3.7348402796863071E-002
 chl2c          25   4.5426679235459781E-002   4.5426679235459781E-002  0.31406487500000002        4.3549846295010388E-005   1.0616420337920623E-016
 chl          25   3.0900633609034128E-005   6.8023095962764740E-004   4.5426679235459781E-002
 chl2c          26   4.7955660680174553E-002   4.7955660680174553E-002  0.49427735000000000        4.3549846295010388E-005   9.8094792804953369E-017
 chl          26   3.2620925084051072E-005   6.8023095962760772E-004   4.7955660680174553E-002
 chl2c          27   4.5333133499525620E-002   4.5333133499525620E-002  0.30964730000000001        4.3549846295010388E-005   1.1603595205343920E-016
 chl          27   3.0837000903312760E-005   6.8023095962769587E-004   4.5333133499525620E-002
 chl2c          28   3.1209236063453518E-002   3.1209236063453518E-002  0.28776342500000002        6.3821679331961450E-005   1.1543507352955445E-016
 chl          28   2.1229488596690189E-005   6.8023095962769294E-004   3.1209236063453518E-002
 chl2c          29   5.6905232462927835E-002   3.7743217595736761E-002  0.68676297499999994        1.0127552368296053E-004   3.1418909310569064E-006
 chl          29   3.9471930854279070E-005   6.9364325820114924E-004   5.6905232462927835E-002
 chl2c          30   2.5380056985171612E-002   2.5380056985171612E-002  0.38930277499999999        5.3433772760761591E-005   1.7019050986393864E-016
 chl          30   1.7264300518435657E-005   6.8023095962796247E-004   2.5380056985171612E-002
 chl2c          31   5.2258483434398692E-002   3.7576959810037038E-002  0.63559385000000002        1.0127552368296053E-004   2.8833189257540549E-006
 chl          31   3.6192573086170020E-005   6.9256837756502077E-004   5.2258483434398692E-002
 chl2c          32   5.8254922924883303E-002   2.0893126428578448E-002  0.24722667500000001        1.0127552368296053E-004   3.8592736315307112E-006
 chl          32   4.0497757130675587E-005   6.9518171336172463E-004   5.8254922924883303E-002
 chl2c          33   4.3672010436470156E-002   3.7458922634011876E-002  0.60343137499999999        1.0127552368296053E-004   2.3839887757533384E-006
 chl          33   3.0156541828822285E-005   6.9052332437708874E-004   4.3672010436470156E-002
 chl2c          34   5.7857826416825311E-002   2.5350269098008315E-002  0.38241020000000003        5.3433772760761591E-005   1.8213467525272651E-006
 chl          34   3.9781166516417704E-005   6.8756759422350453E-004   5.7857826416825311E-002
 chl2c          35   2.5740370148566064E-002   2.5740370148566064E-002  0.49574644999999995        5.3433772760761591E-005   1.2272939821899870E-016
 chl          35   1.7509396687332049E-005   6.8023095962772915E-004   2.5740370148566064E-002
 chl2c          36   3.7770393924465726E-002   3.7770393924465726E-002  0.69587337500000002        1.0127552368296053E-004   1.2758388924379684E-016
 chl          36   2.5706412093936856E-005   6.8059687556728285E-004   3.7770393924465726E-002
 chl2c          37   2.1353674699533250E-002   2.1353674699533250E-002  0.33194060000000003        1.0127552368296053E-004   1.1233291995507894E-016
 chl          37   1.4525430632440774E-005   6.8023095962767809E-004   2.1353674699533250E-002
 chl2c          38   2.1543295686358745E-002   2.1543295686358745E-002  0.38455722500000000        1.0127552368296053E-004   1.7373537900202149E-016
 chl          38   1.4654416698281129E-005   6.8023095962797993E-004   2.1543295686358745E-002
 chl2c          39   2.5670077108751441E-002   2.5670077108751441E-002  0.47091117500000002        5.3433772760761591E-005   1.3973044867511444E-016
 chl          39   1.7461581185405941E-005   6.8023095962781274E-004   2.5670077108751441E-002
 chl2c          40   3.7687445774703773E-002   3.7687445774703773E-002  0.66875547499999999        1.0127552368296053E-004   1.6808864762438508E-016
 chl          40   2.5649957842382288E-005   6.8059687556748202E-004   3.7687445774703773E-002
 chl2c          41   2.5582381488167241E-002   2.5582381488167241E-002  0.44304987499999998        5.3433772760761591E-005   1.0111303141941604E-016
 chl          41   1.7401927909255934E-005   6.8023095962762279E-004   2.5582381488167241E-002
 chl2c          42   3.7949995630725070E-002   3.7949995630725070E-002  0.76234377499999995        1.0127552368296053E-004   1.4170991408863723E-016
 chl          42   2.5828648450719292E-005   6.8059687547916096E-004   3.7949995630725070E-002
 chl2c          43   2.1185090152268007E-002   2.1185090152268007E-002  0.29539925000000000        1.0127552368296053E-004   1.7298819934177816E-016
 chl          43   1.4410756247277812E-005   6.8023105607294490E-004   2.1185090152268007E-002
 chl2c          44   3.7536352708156646E-002   3.7536352708156646E-002  0.62417262500000004        1.0127552368296053E-004   1.2100933584767348E-016
 chl          44   2.5547124370051334E-005   6.8059687547905915E-004   3.7536352708156646E-002
 chl2c          45   4.6544927192009838E-002   4.6544927192009838E-002  0.37662252499999999        4.3549846295010388E-005   3.5614283883703895E-007
 chl          45   3.1742537975504939E-005   6.8197631601310234E-004   4.6544927192009838E-002
 chl2c          46   5.6587674008812670E-002   3.7083195475449568E-002  0.51876034999999998        1.0127552368296053E-004   3.2163170529562867E-006
 chl          46   3.9261526631498442E-005   6.9381764349218619E-004   5.6587674008812670E-002
 chl2c          47   3.7519784612651236E-002   3.7519784612651236E-002  0.61962282499999999        1.0127552368296053E-004   1.5464633218050106E-016
 chl          47   2.5535848176023917E-005   6.8059687547922449E-004   3.7519784612651236E-002
 chl2c          48   3.7823212136301673E-002   3.7823212136301673E-002  0.71424949999999998        1.0127552368296053E-004   1.4870826736598204E-016
 chl          48   2.5742360000553702E-005   6.8059687547919543E-004   3.7823212136301673E-002
 chl2c          49   3.7152990741888416E-002   3.7152990741888416E-002  0.53276120000000005        1.0127552368296053E-004   1.3836178244918623E-016
 chl          49   2.5286209413634838E-005   6.8059687547914448E-004   3.7152990741888416E-002
 chl2c          50   4.8179078484335044E-002   2.1533072915600981E-002  0.38132569999999999        1.0127552368296053E-004   2.7925030343884240E-006
 chl          50   3.3321517536778164E-005   6.9161799239502537E-004   4.8179078484335044E-002
 chl2c          51   2.0700971146093840E-002   2.0700971146093840E-002  0.22275920000000002        1.0127552368296053E-004   1.8469221144801340E-016
 chl          51   1.4081441467939653E-005   6.8023095962803381E-004   2.0700971146093840E-002
 chl2c          52   3.7581825176985564E-002   3.7581825176985564E-002  0.63698869999999996        1.0127552368296053E-004   1.6461484049060183E-016
 chl          52   2.5578072793579065E-005   6.8059687556746489E-004   3.7581825176985564E-002
 chl2c          53   3.7925801262726190E-002   3.7925801262726190E-002  0.75269794999999995        1.0127552368296053E-004   1.4736606153190056E-016
 chl          53   2.5812181842800847E-005   6.8059687556738021E-004   3.7925801262726190E-002
 chl2c          54   3.7082433371327092E-002   3.7082433371327092E-002  0.51861124999999997        1.0127552368296053E-004   1.2081440998801169E-016
 chl          54   2.5238188287685578E-005   6.8059687547905817E-004   3.7082433371327092E-002
 chl2c          55   6.3071871442725649E-002   3.7357235588660491E-002  0.57808280000000001        1.0127552368296053E-004   3.5849559376024773E-006
 chl          55   4.3856434122633202E-005   6.9534061887569615E-004   6.3071871442725649E-002
 chl2c          56   3.7507394187257688E-002   3.7507394187257688E-002  0.61626080000000005        1.0127552368296053E-004   1.6505130356251853E-016
 chl          56   2.5527415294524957E-005   6.8059687556746705E-004   3.7507394187257688E-002
 chl2c          57   4.6553102044047875E-002   3.7727617852646313E-002  0.68163462500000005        1.0127552368296053E-004   2.5301443120799768E-006
 chl          57   3.2175245748590683E-005   6.9115148799637300E-004   4.6553102044047875E-002
 chl2c          58   4.4287115166658245E-002   3.7765358178394853E-002  0.69416802499999997        1.0127552368296053E-004   2.3954257777873567E-006
 chl          58   3.0584775817636531E-005   6.9060212439988461E-004   4.4287115166658245E-002
 chl2c          59   3.7173699120809672E-002   3.7173699120809672E-002  0.53705127500000005        1.0127552368296053E-004   1.6790383782192045E-016
 chl          59   2.5300304448059358E-005   6.8059690174595406E-004   3.7173699120809672E-002
 chl2c          60   3.7607757740906807E-002   3.7607757740906807E-002  0.64452155000000000        1.0127552368296053E-004   1.4749345983692032E-006
 chl          60   2.5848807837863993E-005   6.8732648236955807E-004   3.7607757740906807E-002
 chl2c          61   3.7805373434125003E-002   3.7805373434125003E-002  0.70794139999999994        1.0127552368296053E-004   1.4421711714138029E-016
 chl          61   2.5730219035588816E-005   6.8059687547917321E-004   3.7805373434125003E-002
 chl2c          62   3.7956103087269030E-002   3.7956103087269030E-002  0.76481592499999995        1.0127552368296053E-004   1.1763141196451833E-016
 chl          62   2.5832805166555742E-005   6.8059687547904256E-004   3.7956103087269030E-002
 chl2c          63   4.5718659779275542E-002   3.7855601011927406E-002  0.72597904999999996        1.0127552368296053E-004   2.4706822603366405E-006
 chl          63   3.1587983426055861E-005   6.9092102827508566E-004   4.5718659779275542E-002
 chl2c          64   2.5708982294816416E-002   2.5708982294816416E-002  0.48435739999999999        5.3433772760761591E-005   9.8368203777081101E-017
 chl          64   1.7488045697452193E-005   6.8023095962760946E-004   2.5708982294816416E-002
 chl2c          65   3.7953597170552002E-002   3.7953597170552002E-002  0.76379975000000000        1.0127552368296053E-004   1.3000868303538548E-016
 chl          65   2.5831099652969986E-005   6.8059687562401069E-004   3.7953597170552002E-002
 chl2c          66   3.1840477731474713E-002   3.1840477731474713E-002  0.35213202499999996        6.3821679331961450E-005   1.0565490675547032E-016
 chl          66   2.1658878722283703E-005   6.8023095962764491E-004   3.1840477731474713E-002
 chl2c          67   3.7937587124568600E-002   3.7937587124568600E-002  0.75736760000000003        1.0127552368296053E-004   1.3757265014196380E-016
 chl          67   2.5820203260199064E-005   6.8059687547914057E-004   3.7937587124568600E-002
 chl2c          68   4.0389625845601893E-002   3.7855407263856986E-002  0.72590779999999999        1.0127552368296053E-004   2.1657425135380174E-006
 chl          68   2.7855363255852664E-005   6.8966628614822612E-004   4.0389625845601893E-002
 chl2c          69   4.6653165313852663E-002   2.1732330561541505E-002  0.45524217500000003        1.0127552368296053E-004   2.6321547922561033E-006
 chl          69   3.2240455607643792E-005   6.9106684167624265E-004   4.6653165313852663E-002
 chl2c          70   3.2658010878182209E-002   3.2658010878182209E-002  0.48694062500000002        6.3821679331961450E-005   1.3732627164504597E-016
 chl          70   2.2214990079201032E-005   6.8023095962780049E-004   3.2658010878182209E-002
 chl2c          71   4.3481058864416305E-002   4.3481058864416305E-002  0.23986107500000001        4.3549846295010388E-005   1.1553624195269815E-016
 chl          71   2.9577162396970127E-005   6.8023095962769337E-004   4.3481058864416305E-002
 chl2c          72   3.7549776402781669E-002   3.7549776402781669E-002  0.62790522500000001        1.0127552368296053E-004   1.6557376268183104E-016
 chl          72   2.5556260497990299E-005   6.8059687556746955E-004   3.7549776402781669E-002
 chl2c          73   3.1852614277819484E-002   3.1852614277819484E-002  0.35362212500000001        6.3821679331961450E-005   1.2649237837249688E-016
 chl          73   2.1667134376853629E-005   6.8023095962774715E-004   3.1852614277819484E-002
 chl2c          74   3.7616827685877569E-002   3.7616827685877569E-002  0.64719590000000005        1.0127552368296053E-004   1.7466139877413192E-006
 chl          74   2.5889804102921850E-005   6.8825059675730238E-004   3.7616827685877569E-002
 chl2c          75   3.7826830779512356E-002   3.7826830779512356E-002  0.71554212500000003        1.0127552368296053E-004   1.3045159224428708E-016
 chl          75   2.5744822841148970E-005   6.8059687556729694E-004   3.7826830779512356E-002
 chl2c          76   5.6738369980373619E-002   3.7257729557919804E-002  0.55513977500000000        1.0127552368296053E-004   3.2001802741241036E-006
 chl          76   3.9364341926555725E-005   6.9378697238169247E-004   5.6738369980373619E-002
 chl2c          77   3.7138172437479272E-002   3.7138172437479272E-002  0.52973029999999999        1.0127552368296053E-004   7.5996481923300118E-007
 chl          77   2.5414101823689956E-005   6.8431212834917088E-004   3.7138172437479272E-002
 chl2c          78   7.9864676898062897E-002   4.7515248899399322E-002  0.45117492500000000        4.3549846295010388E-005   2.1130967830520159E-006
 chl          78   5.4998179381566815E-005   6.8864210709529319E-004   7.9864676898062897E-002
 prod   5.9310694592038630E-007   74.638918880074527        10.000000000000000     
 chl2c           1   3.7477407714772232E-002   3.7477407714772232E-002  0.60826437499999997        8.6843353068691425E-005   1.4165895528184479E-007
 chl           1   2.0415142550973945E-005   5.4473198110036405E-004   3.7477407714772232E-002
 chl2c           2   5.0637375434012422E-002   3.2640259920490348E-002  0.48302390000000001        5.5279714830777569E-005   1.5635200531964781E-006
 chl           2   2.7786217593382827E-005   5.4872941883791256E-004   5.0637375434012422E-002
 chl2c           3   3.7922212503796585E-002   3.7922212503796585E-002  0.75128689999999998        8.6843353068691425E-005   1.4686034831809951E-016
 chl           3   2.0636346985612457E-005   5.4417571188776102E-004   3.7922212503796585E-002
 chl2c           4   6.7443471543498237E-002   3.7976509103863923E-002  0.77318742499999993        8.6843353068691425E-005   3.2083675911830255E-006
 chl           4   3.7418233881649805E-005   5.5480883509260938E-004   6.7443471543498237E-002
 chl2c           5   7.7615530099475818E-002   2.5710500362372445E-002  0.48489679999999996        4.5807096181126882E-005   2.1164415252178691E-006
 chl           5   4.2719023646972769E-005   5.5039273186979461E-004   7.7615530099475818E-002
 chl2c           6   3.1261039902252048E-002   3.1261039902252048E-002  0.29222855000000003        5.5279714830777569E-005   1.3432997668222129E-016
 chl           6   1.6993634688970554E-005   5.4360426723188858E-004   3.1261039902252048E-002
 chl2c           7   6.5662934194014158E-002   4.3064391842467263E-002  0.22770740000000000        3.7959881173360360E-005   1.7512900297829090E-006
 chl           7   3.6038409152969551E-005   5.4883945707462486E-004   6.5662934194014158E-002
 chl2c           8   4.7969800906495587E-002   4.7969800906495587E-002  0.49578364999999996        3.7959881173360360E-005   3.1696984253492822E-007
 chl           8   2.6136102747708147E-005   5.4484492855522897E-004   4.7969800906495587E-002
 chl2c           9   6.9395696278905281E-002   2.4803669054600401E-002  0.28700202499999999        4.5807096181126882E-005   2.0962773539770272E-006
 chl           9   3.8171487110202507E-005   5.5005553884478816E-004   6.9395696278905281E-002
 chl2c          10   9.3440280059746916E-002   2.5387016219684602E-002  0.39094662499999999        4.5807096181126882E-005   2.8122772481783811E-006
 chl          10   5.1605322108107112E-005   5.5228132958409380E-004   9.3440280059746916E-002
 chl2c          11   2.1820572217820047E-002   2.1820572217820047E-002  0.49737575000000001        8.6843353068691425E-005   1.3607315664863115E-016
 chl          11   1.1861756171048729E-005   5.4360426723189573E-004   2.1820572217820047E-002
 chl2c          12   4.5290941298723353E-002   4.5290941298723353E-002  0.30768942500000002        3.7959881173360360E-005   8.3124721608634677E-017
 chl          12   2.4620348956925870E-005   5.4360426723168724E-004   4.5290941298723353E-002
 chl2c          13   3.7935816987997487E-002   3.7935816987997487E-002  0.75666275000000005        8.6843353068691425E-005   1.2193707582048920E-016
 chl          13   2.0643750212920864E-005   5.4417571182010767E-004   3.7935816987997487E-002
 chl2c          14   4.6856526101924839E-002   4.6856526101924839E-002  0.39804095000000000        3.7959881173360360E-005   1.0657816336517707E-016
 chl          14   2.5471407536663603E-005   5.4360426723177951E-004   4.6856526101924839E-002
 chl2c          15   5.8626708205847367E-002   2.0954299823745293E-002  0.25607262500000000        8.6843353068691425E-005   3.3015440360680076E-006
 chl          15   3.2470660235804944E-005   5.5385439895065365E-004   5.8626708205847367E-002
 chl2c          16   3.7823443882273475E-002   3.7823443882273475E-002  0.71433214999999994        8.6843353068691425E-005   1.5294438765037222E-016
 chl          16   2.0582599500683854E-005   5.4417571188778498E-004   3.7823443882273475E-002
 chl2c          17   3.7542254757581245E-002   3.7542254757581245E-002  0.62580860000000005        8.6843353068691425E-005   1.5286710580150160E-016
 chl          17   2.0429583208579344E-005   5.4417571188778466E-004   3.7542254757581245E-002
 chl2c          18   2.5694475239060960E-002   2.5694475239060960E-002  0.47925950000000000        4.5807096181126882E-005   1.4213939649731614E-016
 chl          18   1.3967626384238435E-005   5.4360426723191958E-004   2.5694475239060960E-002
 chl2c          19   4.3358922732388026E-002   3.7570220750293731E-002  0.63367130000000005        8.6843353068691425E-005   2.0210042165600208E-006
 chl          19   2.3886801328636213E-005   5.5090855176605604E-004   4.3358922732388026E-002
 chl2c          20   3.7020645196759419E-002   3.7020645196759419E-002  0.50678202500000002        8.6843353068691425E-005   1.3437511894011759E-016
 chl          20   2.0145735951988022E-005   5.4417571182015668E-004   3.7020645196759419E-002
 chl2c          21   3.7838475073783531E-002   3.7838475073783531E-002  0.71973185000000006        8.6843353068691425E-005   1.5779279208271160E-006
 chl          21   2.0797175685526305E-005   5.4963038666258710E-004   3.7838475073783531E-002
 chl2c          22   6.7056394336888384E-002   3.7613353106285476E-002  0.64616892500000001        8.6843353068691425E-005   3.2488517293633289E-006
 chl          22   3.7207889431068467E-005   5.5487459173748086E-004   6.7056394336888384E-002
 chl2c          23   3.2286562315070731E-002   3.2286562315070731E-002  0.41564179999999995        5.5279714830777569E-005   1.0915166846992224E-016
 chl          23   1.7551113048717535E-005   5.4360426723178948E-004   3.2286562315070731E-002
 chl2c          24   3.7348402796863071E-002   3.7348402796863071E-002  0.57597492500000003        8.6843353068691425E-005   1.0891090050369846E-016
 chl          24   2.0324093677325151E-005   5.4417571182005650E-004   3.7348402796863071E-002
 chl2c          25   4.5426679235459781E-002   4.5426679235459781E-002  0.31406487500000002        3.7959881173360360E-005   8.7252397596885665E-017
 chl          25   2.4694136678561756E-005   5.4360426723170350E-004   4.5426679235459781E-002
 chl2c          26   4.7955660680174553E-002   4.7955660680174553E-002  0.49427735000000000        3.7959881173360360E-005   8.0360853750929840E-017
 chl          26   2.6068901783657210E-005   5.4360426723167651E-004   4.7955660680174553E-002
 chl2c          27   4.5333133499525620E-002   4.5333133499525620E-002  0.30964730000000001        3.7959881173360360E-005   1.0577418828095248E-016
 chl          27   2.4643284817329919E-005   5.4360426723177636E-004   4.5333133499525620E-002
 chl2c          28   3.1209236063453518E-002   3.1209236063453518E-002  0.28776342500000002        5.5279714830777569E-005   1.0520087329626190E-016
 chl          28   1.6965473901137107E-005   5.4360426723177408E-004   3.1209236063453518E-002
 chl2c          29   5.8988415174256868E-002   3.7743217595736761E-002  0.68676297499999994        8.6843353068691425E-005   2.8020538487099463E-006
 chl          29   3.2647825950691536E-005   5.5346165605987276E-004   5.8988415174256868E-002
 chl2c          30   2.5380056985171612E-002   2.5380056985171612E-002  0.38930277499999999        4.5807096181126882E-005   1.5606464487677437E-016
 chl          30   1.3796707279729963E-005   5.4360426723197423E-004   2.5380056985171612E-002
 chl2c          31   5.2065830235207132E-002   3.7576959810037038E-002  0.63559385000000002        8.6843353068691425E-005   2.4625063400963634E-006
 chl          31   2.8758304743441936E-005   5.5234507187394179E-004   5.2065830235207132E-002
 chl2c          32   6.0711264737111213E-002   2.0893126428578448E-002  0.24722667500000001        8.6843353068691425E-005   3.4942701326754658E-006
 chl          32   3.3655662931295026E-005   5.5435614917641795E-004   6.0711264737111213E-002
 chl2c          33   4.7224213656836420E-002   3.7458922634011876E-002  0.60343137499999999        8.6843353068691425E-005   2.2246548148712774E-006
 chl          33   2.6047105457822748E-005   5.5156250238699389E-004   4.7224213656836420E-002
 chl2c          34   5.4338619988647086E-002   2.5350269098008315E-002  0.38241020000000003        4.5807096181126882E-005   1.4506820192952092E-006
 chl          34   2.9793331419345138E-005   5.4829017419967291E-004   5.4338619988647086E-002
 chl2c          35   2.5740370148566064E-002   2.5740370148566064E-002  0.49574644999999995        4.5807096181126882E-005   1.1212021691248410E-016
 chl          35   1.3992575052886593E-005   5.4360426723180151E-004   2.5740370148566064E-002
 chl2c          36   3.7770393924465726E-002   3.7770393924465726E-002  0.69587337500000002        8.6843353068691425E-005   1.1611176767170958E-016
 chl          36   2.0553731002122737E-005   5.4417571188764024E-004   3.7770393924465726E-002
 chl2c          37   2.1353674699533250E-002   2.1353674699533250E-002  0.33194060000000003        8.6843353068691425E-005   1.0253969585960899E-016
 chl          37   1.1607948687745229E-005   5.4360426723176389E-004   2.1353674699533250E-002
 chl2c          38   2.1543295686358745E-002   2.1543295686358745E-002  0.38455722500000000        8.6843353068691425E-005   1.5936090733266991E-016
 chl          38   1.1711027465345077E-005   5.4360426723198724E-004   2.1543295686358745E-002
 chl2c          39   2.5670077108751441E-002   2.5670077108751441E-002  0.47091117500000002        4.5807096181126882E-005   1.2782184949602754E-016
 chl          39   1.3954363456488253E-005   5.4360426723186321E-004   2.5670077108751441E-002
 chl2c          40   3.7687445774703773E-002   3.7687445774703773E-002  0.66875547499999999        8.6843353068691425E-005   1.5324278147658308E-016
 chl          40   2.0508592633681760E-005   5.4417571188778607E-004   3.7687445774703773E-002
 chl2c          41   2.5582381488167241E-002   2.5582381488167241E-002  0.44304987499999998        4.5807096181126882E-005   9.2218277751768249E-017
 chl          41   1.3906691742917562E-005   5.4360426723172356E-004   2.5582381488167241E-002
 chl2c          42   3.7949995630725070E-002   3.7949995630725070E-002  0.76234377499999995        8.6843353068691425E-005   1.2904602964290628E-016
 chl          42   2.0651465885920851E-005   5.4417571182013564E-004   3.7949995630725070E-002
 chl2c          43   2.1185090152268007E-002   2.1185090152268007E-002  0.29539925000000000        8.6843353068691425E-005   4.5399994417358022E-008
 chl          43   1.1520092678433831E-005   5.4378303777010491E-004   2.1185090152268007E-002
 chl2c          44   3.7536352708156646E-002   3.7536352708156646E-002  0.62417262500000004        8.6843353068691425E-005   1.1009736720702397E-016
 chl          44   2.0426371454090025E-005   5.4417571182006116E-004   3.7536352708156646E-002
 chl2c          45   4.6544927192009838E-002   4.6544927192009838E-002  0.37662252499999999        3.7959881173360360E-005   1.2463961908889865E-007
 chl          45   2.5324801942672851E-005   5.4409370624217558E-004   4.6544927192009838E-002
 chl2c          46   5.7787651534110744E-002   3.7083195475449568E-002  0.51876034999999998        8.6843353068691425E-005   2.8237952477227887E-006
 chl          46   3.1982043688286848E-005   5.5344079295917693E-004   5.7787651534110744E-002
 chl2c          47   3.7519784612651236E-002   3.7519784612651236E-002  0.61962282499999999        8.6843353068691425E-005   1.4090525649953807E-016
 chl          47   2.0417355498929408E-005   5.4417571182018227E-004   3.7519784612651236E-002
 chl2c          48   3.7823212136301673E-002   3.7823212136301673E-002  0.71424949999999998        8.6843353068691425E-005   1.3545994838270500E-016
 chl          48   2.0582473387596908E-005   5.4417571182016080E-004   3.7823212136301673E-002
 chl2c          49   3.7152990741888416E-002   3.7152990741888416E-002  0.53276120000000005        8.6843353068691425E-005   1.2597890896327979E-016
 chl          49   2.0217755183213591E-005   5.4417571182012361E-004   3.7152990741888416E-002
 chl2c          50   5.1153454933630819E-002   2.1533072915600981E-002  0.38132569999999999        8.6843353068691425E-005   2.5652935706185301E-006
 chl          50   2.8233264017415236E-005   5.5193269064712357E-004   5.1153454933630819E-002
 chl2c          51   2.0700971146093840E-002   2.0700971146093840E-002  0.22275920000000002        8.6843353068691425E-005   1.6956198200337942E-016
 chl          51   1.1253136250863684E-005   5.4360426723202735E-004   2.0700971146093840E-002
 chl2c          52   3.7581825176985564E-002   3.7581825176985564E-002  0.63698869999999996        8.6843353068691425E-005   1.5005305186438209E-016
 chl          52   2.0451116469727967E-005   5.4417571188777349E-004   3.7581825176985564E-002
 chl2c          53   3.7925801262726190E-002   3.7925801262726190E-002  0.75269794999999995        8.6843353068691425E-005   1.3422952145693764E-016
 chl          53   2.0638299901055888E-005   5.4417571188771136E-004   3.7925801262726190E-002
 chl2c          54   3.7082433371327092E-002   3.7082433371327092E-002  0.51861124999999997        8.6843353068691425E-005   1.0991910194724490E-016
 chl          54   2.0179359575861888E-005   5.4417571182006051E-004   3.7082433371327092E-002
 chl2c          55   6.5789318389243012E-002   3.7357235588660491E-002  0.57808280000000001        8.6843353068691425E-005   3.2235409565846141E-006
 chl          55   3.6496492137768584E-005   5.5474798996756286E-004   6.5789318389243012E-002
 chl2c          56   3.7507394187257688E-002   3.7507394187257688E-002  0.61626080000000005        8.6843353068691425E-005   1.5045376757245810E-016
 chl          56   2.0410612932906354E-005   5.4417571188777522E-004   3.7507394187257688E-002
 chl2c          57   4.4647983887146032E-002   3.7727617852646313E-002  0.68163462500000005        8.6843353068691425E-005   2.0745779582471459E-006
 chl          57   2.4605347038218376E-005   5.5109648624698934E-004   4.4647983887146032E-002
 chl2c          58   4.9798020353515687E-002   3.7765358178394853E-002  0.69416802499999997        8.6843353068691425E-005   2.3294208343115121E-006
 chl          58   2.7485018487762914E-005   5.5192994204683284E-004   4.9798020353515687E-002
 chl2c          59   3.7173699120809672E-002   3.7173699120809672E-002  0.53705127500000005        8.6843353068691425E-005   1.2325252514547816E-008
 chl          59   2.0230834786946211E-005   5.4422441848465594E-004   3.7173699120809672E-002
 chl2c          60   3.7607757740906807E-002   3.7607757740906807E-002  0.64452155000000000        8.6843353068691425E-005   1.4752359963681866E-006
 chl          60   2.0660319702738497E-005   5.4936324162357074E-004   3.7607757740906807E-002
 chl2c          61   3.7805373434125003E-002   3.7805373434125003E-002  0.70794139999999994        8.6843353068691425E-005   1.3134339730616394E-016
 chl          61   2.0572765999141360E-005   5.4417571182014464E-004   3.7805373434125003E-002
 chl2c          62   3.7956103087269030E-002   3.7956103087269030E-002  0.76481592499999995        8.6843353068691425E-005   1.0700858939879679E-016
 chl          62   2.0654789415429783E-005   5.4417571182004902E-004   3.7956103087269030E-002
 chl2c          63   4.8631866661626146E-002   3.7855601011927406E-002  0.72597904999999996        8.6843353068691425E-005   2.2632904266119434E-006
 chl          63   2.6831309348296854E-005   5.5172279392410380E-004   4.8631866661626146E-002
 chl2c          64   2.5708982294816416E-002   2.5708982294816416E-002  0.48435739999999999        4.5807096181126882E-005   8.9696051075935491E-017
 chl          64   1.3975512481646776E-005   5.4360426723171359E-004   2.5708982294816416E-002
 chl2c          65   3.7953597170552002E-002   3.7953597170552002E-002  0.76379975000000000        8.6843353068691425E-005   1.1833084513019310E-016
 chl          65   2.0653430248428180E-005   5.4417583017540871E-004   3.7953597170552002E-002
 chl2c          66   3.1840477731474713E-002   3.1840477731474713E-002  0.35213202499999996        5.5279714830777569E-005   8.6816125288690594E-017
 chl          66   1.7308619565525631E-005   5.4360426723170177E-004   3.1840477731474713E-002
 chl2c          67   3.7937587124568600E-002   3.7937587124568600E-002  0.75736760000000003        8.6843353068691425E-005   1.2525614137987204E-016
 chl          67   2.0644713478249969E-005   5.4417571182012079E-004   3.7937587124568600E-002
 chl2c          68   4.6491629644620801E-002   3.7855407263856986E-002  0.72590779999999999        8.6843353068691425E-005   2.1568847572204722E-006
 chl          68   2.5634261258229178E-005   5.5137368713843585E-004   4.6491629644620801E-002
 chl2c          69   4.8376142865371466E-002   2.1732330561541505E-002  0.45524217500000003        8.6843353068691425E-005   2.3503302052703572E-006
 chl          69   2.6670781478481485E-005   5.5132095902529928E-004   4.8376142865371466E-002
 chl2c          70   3.2658010878182209E-002   3.2658010878182209E-002  0.48694062500000002        5.5279714830777569E-005   1.2626551042398586E-016
 chl          70   1.7753034072684243E-005   5.4360426723185670E-004   3.2658010878182209E-002
 chl2c          71   4.3481058864416305E-002   4.3481058864416305E-002  0.23986107500000001        3.7959881173360360E-005   9.5312525432528950E-017
 chl          71   2.3636489142450968E-005   5.4360426723173516E-004   4.3481058864416305E-002
 chl2c          72   3.7549776402781669E-002   3.7549776402781669E-002  0.62790522500000001        8.6843353068691425E-005   1.5093345671607173E-016
 chl          72   2.0433676305210564E-005   5.4417571188777696E-004   3.7549776402781669E-002
 chl2c          73   3.1852614277819484E-002   3.1852614277819484E-002  0.35362212500000001        5.5279714830777569E-005   1.0481231497553170E-016
 chl          73   1.7315217043910354E-005   5.4360426723177246E-004   3.1852614277819484E-002
 chl2c          74   3.8068748481402820E-002   3.7616827685877569E-002  0.64719590000000005        8.6843353068691425E-005   1.7563173285454968E-006
 chl          74   2.0939589167987848E-005   5.5004669192676946E-004   3.8068748481402820E-002
 chl2c          75   3.7826830779512356E-002   3.7826830779512356E-002  0.71554212500000003        8.6843353068691425E-005   1.1873622962670998E-016
 chl          75   2.0584442567894832E-005   5.4417571188765065E-004   3.7826830779512356E-002
 chl2c          76   5.9132633842718690E-002   3.7257729557919804E-002  0.55513977500000000        8.6843353068691425E-005   2.8737449896883660E-006
 chl          76   3.2737224506143414E-005   5.5362364871515901E-004   5.9132633842718690E-002
 chl2c          77   3.7138172437479272E-002   3.7138172437479272E-002  0.52973029999999999        8.6843353068691425E-005   8.4126419174576435E-007
 chl          77   2.0330068443278443E-005   5.4741704044547034E-004   3.7138172437479272E-002
 chl2c          78   7.3765107913305539E-002   4.7515248899399322E-002  0.45117492500000000        3.7959881173360360E-005   1.6736999100349353E-006
 chl          78   4.0493921245412746E-005   5.4895766292383571E-004   7.3765107913305539E-002
 prod   4.6758024246534173E-007   63.572655437349276        10.000000000000000     
 chl2c           1   3.7477407714772232E-002   3.7477407714772232E-002  0.60826437499999997        7.4629865009428133E-005   2.3778206165642503E-007
 chl           1   1.4685573441496139E-005   3.9185136691585049E-004   3.7477407714772232E-002
 chl2c           2   3.4864238739345042E-002   3.2640259920490348E-002  0.48302390000000001        4.7928923504759636E-005   9.0050001177841696E-007
 chl           2   1.3690557939720718E-005   3.9268196968461638E-004   3.4864238739345042E-002
 chl2c           3   3.7922212503796585E-002   3.7922212503796585E-002  0.75128689999999998        7.4629865009428133E-005   1.2660653252177617E-016
 chl           3   1.4834412831664894E-005   3.9118004600021018E-004   3.7922212503796585E-002
 chl2c           4   6.7765828823622948E-002   3.7976509103863923E-002  0.77318742499999993        7.4629865009428133E-005   2.7715929353667443E-006
 chl           4   2.6955579504601886E-005   3.9777539760873197E-004   6.7765828823622948E-002
 chl2c           5   7.3738805454736600E-002   2.5710500362372445E-002  0.48489679999999996        3.9431707324923217E-005   1.7145583233180782E-006
 chl           5   2.9090106494412587E-005   3.9450200359251937E-004   7.3738805454736600E-002
 chl2c           6   3.1261039902252048E-002   3.1261039902252048E-002  0.29222855000000003        4.7928923504759636E-005   1.0795006453716591E-016
 chl           6   1.2208676529078100E-005   3.9053968029382753E-004   3.1261039902252048E-002
 chl2c           7   5.0211595011311734E-002   4.3064391842467263E-002  0.22770740000000000        3.3111419811414082E-005   1.0664509280934575E-006
 chl           7   1.9728955954601748E-005   3.9291633635930471E-004   5.0211595011311734E-002
 chl2c           8   4.7969800906495587E-002   4.7969800906495587E-002  0.49578364999999996        3.3111419811414082E-005   2.8456936427205484E-007
 chl           8   1.8772414755426251E-005   3.9133818362136001E-004   4.7969800906495587E-002
 chl2c           9   7.3352592669707894E-002   2.4803669054600401E-002  0.28700202499999999        3.9431707324923217E-005   1.9427381674764210E-006
 chl           9   2.8959596040264499E-005   3.9479989713061387E-004   7.3352592669707894E-002
 chl2c          10   9.1432497676653665E-002   2.5387016219684602E-002  0.39094662499999999        3.9431707324923217E-005   2.3529696538100507E-006
 chl          10   3.6185887963760443E-005   3.9576615408374796E-004   9.1432497676653665E-002
 chl2c          11   2.1820572217820047E-002   2.1820572217820047E-002  0.49737575000000001        7.4629865009428133E-005   1.1750984956357891E-016
 chl          11   8.5217992977764105E-006   3.9053968029385480E-004   2.1820572217820047E-002
 chl2c          12   4.5290941298723353E-002   4.5290941298723353E-002  0.30768942500000002        3.3111419811414082E-005   5.1373585231243221E-017
 chl          12   1.7687909735002691E-005   3.9053968029366778E-004   4.5290941298723353E-002
 chl2c          13   3.7935816987997487E-002   3.7935816987997487E-002  0.75666275000000005        7.4629865009428133E-005   1.0507926584289228E-016
 chl          13   1.4839734632626124E-005   3.9118004595291219E-004   3.7935816987997487E-002
 chl2c          14   4.6856526101924839E-002   4.6856526101924839E-002  0.39804095000000000        3.3111419811414082E-005   8.4347889467875617E-017
 chl          14   1.8299332723521995E-005   3.9053968029376102E-004   4.6856526101924839E-002
 chl2c          15   5.7898357057557859E-002   2.0954299823745293E-002  0.25607262500000000        7.4629865009428133E-005   2.7916745764471847E-006
 chl          15   2.2972364992507382E-005   3.9677058486599397E-004   5.7898357057557859E-002
 chl2c          16   3.7823443882273475E-002   3.7823443882273475E-002  0.71433214999999994        7.4629865009428133E-005   1.3186479806653065E-016
 chl          16   1.4795776517754663E-005   3.9118004600022493E-004   3.7823443882273475E-002
 chl2c          17   3.7542254757581245E-002   3.7542254757581245E-002  0.62580860000000005        7.4629865009428133E-005   1.3179799722751606E-016
 chl          17   1.4685780943022788E-005   3.9118004600022477E-004   3.7542254757581245E-002
 chl2c          18   2.5694475239060960E-002   2.5694475239060960E-002  0.47925950000000000        3.9431707324923217E-005   1.2277698273543477E-016
 chl          18   1.0034712145181617E-005   3.9053968029386965E-004   2.5694475239060960E-002
 chl2c          19   4.4552906389906471E-002   3.7570220750293731E-002  0.63367130000000005        7.4629865009428133E-005   1.7882167386278020E-006
 chl          19   1.7618738228250956E-005   3.9545654045686473E-004   4.4552906389906471E-002
 chl2c          20   3.7020645196759419E-002   3.7020645196759419E-002  0.50678202500000002        7.4629865009428133E-005   1.1581993349031770E-016
 chl          20   1.4481737689275931E-005   3.9118004595294255E-004   3.7020645196759419E-002
 chl2c          21   3.7838475073783531E-002   3.7838475073783531E-002  0.71973185000000006        7.4629865009428133E-005   1.4838459281132079E-006
 chl          21   1.4937265398806894E-005   3.9476393722738079E-004   3.7838475073783531E-002
 chl2c          22   6.6499731527864994E-002   3.7613353106285476E-002  0.64616892500000001        7.4629865009428133E-005   2.7661033361002022E-006
 chl          22   2.6448498722322068E-005   3.9772339097699226E-004   6.6499731527864994E-002
 chl2c          23   3.2286562315070731E-002   3.2286562315070731E-002  0.41564179999999995        4.7928923504759636E-005   6.8923056444345164E-017
 chl          23   1.2609183724310905E-005   3.9053968029371732E-004   3.2286562315070731E-002
 chl2c          24   3.7348402796863071E-002   3.7348402796863071E-002  0.57597492500000003        7.4629865009428133E-005   9.3835952543050199E-017
 chl          24   1.4609949922343588E-005   3.9118004595288053E-004   3.7348402796863071E-002
 chl2c          25   4.5426679235459781E-002   4.5426679235459781E-002  0.31406487500000002        3.3111419811414082E-005   5.4106886037626687E-017
 chl          25   1.7740920785419811E-005   3.9053968029367553E-004   4.5426679235459781E-002
 chl2c          26   4.7955660680174553E-002   4.7955660680174553E-002  0.49427735000000000        3.3111419811414082E-005   4.9553653597192251E-017
 chl          26   1.8728588390306744E-005   3.9053968029366273E-004   4.7955660680174553E-002
 chl2c          27   4.5333133499525620E-002   4.5333133499525620E-002  0.30964730000000001        3.3111419811414082E-005   8.3674377779091211E-017
 chl          27   1.7704387463619036E-005   3.9053968029375912E-004   4.5333133499525620E-002
 chl2c          28   3.1209236063453518E-002   3.1209236063453518E-002  0.28776342500000002        4.7928923504759636E-005   8.3194447755696631E-017
 chl          28   1.2188445074433552E-005   3.9053968029375776E-004   3.1209236063453518E-002
 chl2c          29   5.7962570028287752E-002   3.7743217595736761E-002  0.68676297499999994        7.4629865009428133E-005   2.3622418242311575E-006
 chl          29   2.2999840996873322E-005   3.9680505860331244E-004   5.7962570028287752E-002
 chl2c          30   2.5380056985171612E-002   2.5380056985171612E-002  0.38930277499999999        3.9431707324923217E-005   1.3488048113235074E-016
 chl          30   9.9119193408299807E-006   3.9053968029390375E-004   2.5380056985171612E-002
 chl2c          31   4.8948350692270652E-002   3.7576959810037038E-002  0.63559385000000002        7.4629865009428133E-005   1.9789037271558459E-006
 chl          31   1.9378801301147569E-005   3.9590304937910076E-004   4.8948350692270652E-002
 chl2c          32   6.0393378674380098E-002   2.0893126428578448E-002  0.24722667500000001        7.4629865009428133E-005   2.9820370765311191E-006
 chl          32   2.3984076776953728E-005   3.9713089917137195E-004   6.0393378674380098E-002
 chl2c          33   4.8060802683336748E-002   3.7458922634011876E-002  0.60343137499999999        7.4629865009428133E-005   1.9485820773289427E-006
 chl          33   1.9023674380823822E-005   3.9582514895073856E-004   4.8060802683336748E-002
 chl2c          34   4.7524315425212314E-002   2.5350269098008315E-002  0.38241020000000003        3.9431707324923217E-005   1.0699514729267996E-006
 chl          34   1.8678949060588865E-005   3.9303983431351902E-004   4.7524315425212314E-002
 chl2c          35   2.5740370148566064E-002   2.5740370148566064E-002  0.49574644999999995        3.9431707324923217E-005   9.6742189821778210E-017
 chl          35   1.0052635928464967E-005   3.9053968029379625E-004   2.5740370148566064E-002
 chl2c          36   3.7770393924465726E-002   3.7770393924465726E-002  0.69587337500000002        7.4629865009428133E-005   1.0005061112016861E-016
 chl          36   1.4775024432815725E-005   3.9118004600013510E-004   3.7770393924465726E-002
 chl2c          37   2.1353674699533250E-002   2.1353674699533250E-002  0.33194060000000003        7.4629865009428133E-005   8.8448040367146757E-017
 chl          37   8.3394572902529421E-006   3.9053968029377283E-004   2.1353674699533250E-002
 chl2c          38   2.1543295686358745E-002   2.1543295686358745E-002  0.38455722500000000        7.4629865009428133E-005   1.3774820329676048E-016
 chl          38   8.4135118098277536E-006   3.9053968029391183E-004   2.1543295686358745E-002
 chl2c          39   2.5670077108751441E-002   2.5670077108751441E-002  0.47091117500000002        3.9431707324923217E-005   1.1035056337474804E-016
 chl          39   1.0025183707169870E-005   3.9053968029383458E-004   2.5670077108751441E-002
 chl2c          40   3.7687445774703773E-002   3.7687445774703773E-002  0.66875547499999999        7.4629865009428133E-005   1.3212272556624810E-016
 chl          40   1.4742576771779633E-005   3.9118004600022569E-004   3.7687445774703773E-002
 chl2c          41   2.5582381488167241E-002   2.5582381488167241E-002  0.44304987499999998        3.9431707324923217E-005   7.9519653394321473E-017
 chl          41   9.9909350875415211E-006   3.9053968029374757E-004   2.5582381488167241E-002
 chl2c          42   3.7949995630725070E-002   3.7949995630725070E-002  0.76234377499999995        7.4629865009428133E-005   1.1121747104877484E-016
 chl          42   1.4845281034740511E-005   3.9118004595292959E-004   3.7949995630725070E-002
 chl2c          43   2.1185090152268007E-002   2.1185090152268007E-002  0.29539925000000000        7.4629865009428133E-005   2.0912606090920958E-007
 chl          43   8.2861160677090158E-006   3.9112961087975031E-004   2.1185090152268007E-002
 chl2c          44   3.7536352708156646E-002   3.7536352708156646E-002  0.62417262500000004        7.4629865009428133E-005   9.4859817048311987E-017
 chl          44   1.4683472177280356E-005   3.9118004595288340E-004   3.7536352708156646E-002
 chl2c          45   4.6544927192009838E-002   4.6544927192009838E-002  0.37662252499999999        3.3111419811414082E-005   6.4093788375732283E-017
 chl          45   1.8177653270000001E-005   3.9053994423522221E-004   4.6544927192009838E-002
 chl2c          46   5.5906509305370750E-002   3.7083195475449568E-002  0.51876034999999998        7.4629865009428133E-005   2.3381261535072071E-006
 chl          46   2.2177945803707090E-005   3.9669702292746310E-004   5.5906509305370750E-002
 chl2c          47   3.7519784612651236E-002   3.7519784612651236E-002  0.61962282499999999        7.4629865009428133E-005   1.2146097236794018E-016
 chl          47   1.4676991068922014E-005   3.9118004595295848E-004   3.7519784612651236E-002
 chl2c          48   3.7823212136301673E-002   3.7823212136301673E-002  0.71424949999999998        7.4629865009428133E-005   1.1675696051563038E-016
 chl          48   1.4795685861566485E-005   3.9118004595294526E-004   3.7823212136301673E-002
 chl2c          49   3.7152990741888416E-002   3.7152990741888416E-002  0.53276120000000005        7.4629865009428133E-005   1.0856897598563255E-016
 chl          49   1.4533508625700400E-005   3.9118004595292211E-004   3.7152990741888416E-002
 chl2c          50   5.1282575732968468E-002   2.1533072915600981E-002  0.38132569999999999        7.4629865009428133E-005   2.2109446840115507E-006
 chl          50   2.0292118151899951E-005   3.9569225729928740E-004   5.1282575732968468E-002
 chl2c          51   2.0700971146093840E-002   2.0700971146093840E-002  0.22275920000000002        7.4629865009428133E-005   1.4662990940255165E-016
 chl          51   8.0845506531695016E-006   3.9053968029393693E-004   2.0700971146093840E-002
 chl2c          52   3.7581825176985564E-002   3.7581825176985564E-002  0.63698869999999996        7.4629865009428133E-005   1.2936573291579638E-016
 chl          52   1.4701260101505360E-005   3.9118004600021788E-004   3.7581825176985564E-002
 chl2c          53   3.7925801262726190E-002   3.7925801262726190E-002  0.75269794999999995        7.4629865009428133E-005   1.1569417590181309E-016
 chl          53   1.4835816682546884E-005   3.9118004600017918E-004   3.7925801262726190E-002
 chl2c          54   3.7082433371327092E-002   3.7082433371327092E-002  0.51861124999999997        7.4629865009428133E-005   9.4705979903752941E-017
 chl          54   1.4505907990240452E-005   3.9118004595288297E-004   3.7082433371327092E-002
 chl2c          55   6.5225880261399277E-002   3.7357235588660491E-002  0.57808280000000001        7.4629865009428133E-005   2.7434461335927238E-006
 chl          55   2.5936664595897650E-005   3.9764376489752009E-004   6.5225880261399277E-002
 chl2c          56   3.7507394187257688E-002   3.7507394187257688E-002  0.61626080000000005        7.4629865009428133E-005   1.2971206524653680E-016
 chl          56   1.4672144183519803E-005   3.9118004600021886E-004   3.7507394187257688E-002
 chl2c          57   4.0221379088602099E-002   3.7727617852646313E-002  0.68163462500000005        7.4629865009428133E-005   1.5949730035077859E-006
 chl          57   1.5887845412109671E-005   3.9500996167015951E-004   4.0221379088602099E-002
 chl2c          58   5.2243930916652380E-002   3.7765358178394853E-002  0.69416802499999997        7.4629865009428133E-005   2.1081399347065517E-006
 chl          58   2.0699810037367609E-005   3.9621463534953284E-004   5.2243930916652380E-002
 chl2c          59   3.7173699120809672E-002   3.7173699120809672E-002  0.53705127500000005        7.4629865009428133E-005   1.2297882004467470E-007
 chl          59   1.4554503456092227E-005   3.9152690747272658E-004   3.7173699120809672E-002
 chl2c          60   3.7607757740906807E-002   3.7607757740906807E-002  0.64452155000000000        7.4629865009428133E-005   1.3670251297734292E-006
 chl          60   1.4838559370521585E-005   3.9456112945498339E-004   3.7607757740906807E-002
 chl2c          61   3.7805373434125003E-002   3.7805373434125003E-002  0.70794139999999994        7.4629865009428133E-005   1.1320147561657110E-016
 chl          61   1.4788707717228894E-005   3.9118004595293517E-004   3.7805373434125003E-002
 chl2c          62   3.7956103087269030E-002   3.7956103087269030E-002  0.76481592499999995        7.4629865009428133E-005   9.2194435427125831E-017
 chl          62   1.4847670149869995E-005   3.9118004595287592E-004   3.7956103087269030E-002
 chl2c          63   4.8837789653276530E-002   3.7855601011927406E-002  0.72597904999999996        7.4629865009428133E-005   1.9538151421160989E-006
 chl          63   1.9332886144071015E-005   3.9585915499707657E-004   4.8837789653276530E-002
 chl2c          64   2.5708982294816416E-002   2.5708982294816416E-002  0.48435739999999999        3.9431707324923217E-005   7.7338915344694191E-017
 chl          64   1.0040377726095060E-005   3.9053968029374139E-004   2.5708982294816416E-002
 chl2c          65   3.7953597170552002E-002   3.7953597170552002E-002  0.76379975000000000        7.4629865009428133E-005   7.7791833841580599E-008
 chl          65   1.4855015926478612E-005   3.9139942018472340E-004   3.7953597170552002E-002
 chl2c          66   3.1840477731474713E-002   3.1840477731474713E-002  0.35213202499999996        4.7928923504759636E-005   5.3817118421293253E-017
 chl          66   1.2434969993648002E-005   3.9053968029367466E-004   3.1840477731474713E-002
 chl2c          67   3.7937587124568600E-002   3.7937587124568600E-002  0.75736760000000003        7.4629865009428133E-005   1.0794490174454462E-016
 chl          67   1.4840427074731664E-005   3.9118004595292032E-004   3.7937587124568600E-002
 chl2c          68   4.9674653267580929E-002   3.7855407263856986E-002  0.72590779999999999        7.4629865009428133E-005   1.9897683253045073E-006
 chl          68   1.9668325974347503E-005   3.9594289402284771E-004   4.9674653267580929E-002
 chl2c          69   4.7442866959353507E-002   2.1732330561541505E-002  0.45524217500000003        7.4629865009428133E-005   1.9762850753364049E-006
 chl          69   1.8749502167234054E-005   3.9520171037086817E-004   4.7442866959353507E-002
 chl2c          70   3.2658010878182209E-002   3.2658010878182209E-002  0.48694062500000002        4.7928923504759636E-005   1.0102045776361338E-016
 chl          70   1.2754249127396982E-005   3.9053968029380796E-004   3.2658010878182209E-002
 chl2c          71   4.3481058864416305E-002   4.3481058864416305E-002  0.23986107500000001        3.3111419811414082E-005   5.9497835749607002E-017
 chl          71   1.6981078827740290E-005   3.9053968029369071E-004   4.3481058864416305E-002
 chl2c          72   3.7549776402781669E-002   3.7549776402781669E-002  0.62790522500000001        7.4629865009428133E-005   1.3012666061561269E-016
 chl          72   1.4688723260538110E-005   3.9118004600022005E-004   3.7549776402781669E-002
 chl2c          73   3.1852614277819484E-002   3.1852614277819484E-002  0.35362212500000001        4.7928923504759636E-005   6.5944391064226403E-017
 chl          73   1.2439709796578449E-005   3.9053968029370892E-004   3.1852614277819484E-002
 chl2c          74   4.1005541972106797E-002   3.7616827685877569E-002  0.64719590000000005        7.4629865009428133E-005   1.6336234159221527E-006
 chl          74   1.6201103004634369E-005   3.9509544869946721E-004   4.1005541972106797E-002
 chl2c          75   3.7826830779512356E-002   3.7826830779512356E-002  0.71554212500000003        7.4629865009428133E-005   1.0231602806595097E-016
 chl          75   1.4797101404369210E-005   3.9118004600014145E-004   3.7826830779512356E-002
 chl2c          76   5.8589275506503356E-002   3.7257729557919804E-002  0.55513977500000000        7.4629865009428133E-005   2.4442167168902832E-006
 chl          76   2.3257197509172677E-005   3.9695315069378440E-004   5.8589275506503356E-002
 chl2c          77   3.7138172437479272E-002   3.7138172437479272E-002  0.52973029999999999        7.4629865009428133E-005   8.4356314394551173E-007
 chl          77   1.4613084402562639E-005   3.9347882363256352E-004   3.7138172437479272E-002
 chl2c          78   5.9225766942790289E-002   4.7515248899399322E-002  0.45117492500000000        3.3111419811414082E-005   1.1286875126338211E-006
 chl          78   2.3285618117939545E-005   3.9316701699165020E-004   5.9225766942790289E-002
 prod   2.7061954715689636E-007   54.335998504753825        10.000000000000000     
 chl2c           1   3.7477407714772232E-002   3.7477407714772232E-002  0.60826437499999997        6.4253097744925783E-005   3.0040329465802803E-007
 chl           1   8.9459567333714850E-006   2.3870265524916000E-004   3.7477407714772232E-002
 chl2c           2   3.2640259920490348E-002   3.2640259920490348E-002  0.48302390000000001        4.1591462659238735E-005   2.4275233674038364E-007
 chl           2   7.7669833909884557E-006   2.3795715505661860E-004   3.2640259920490348E-002
 chl2c           3   3.7922212503796585E-002   3.7922212503796585E-002  0.75128689999999998        6.4253097744925783E-005   1.0687977403952003E-016
 chl           3   9.0325662778916226E-006   2.3818669010905750E-004   3.7922212503796585E-002
 chl2c           4   6.6438678351962113E-002   3.7976509103863923E-002  0.77318742499999993        6.4253097744925783E-005   2.3350962939381257E-006
 chl           4   1.6049450527934415E-005   2.4156787771893468E-004   6.6438678351962113E-002
 chl2c           5   6.7818566388794480E-002   2.5710500362372445E-002  0.48489679999999996        3.4051497743929633E-005   1.3424144576893638E-006
 chl           5   1.6238633985547280E-005   2.3944230688176794E-004   6.7818566388794480E-002
 chl2c           6   3.1261039902252048E-002   3.1261039902252048E-002  0.29222855000000003        4.1591462659238735E-005   7.4105862158106565E-017
 chl           6   7.4259522142210157E-006   2.3754655115251137E-004   3.1261039902252048E-002
 chl2c           7   4.3064391842467263E-002   4.3064391842467263E-002  0.22770740000000000        2.8900369445652467E-005   3.0681292561680998E-007
 chl           7   1.0251861160027652E-005   2.3805888627267092E-004   4.3064391842467263E-002
 chl2c           8   4.7969800906495587E-002   4.7969800906495587E-002  0.49578364999999996        2.8900369445652467E-005   1.0820328789501141E-007
 chl           8   1.1403863375790566E-005   2.3773005433187799E-004   4.7969800906495587E-002
 chl2c           9   7.4415419043368333E-002   2.4803669054600401E-002  0.28700202499999999        3.4051497743929633E-005   1.7104808553958855E-006
 chl           9   1.7846446065564333E-005   2.3982188496665801E-004   7.4415419043368333E-002
 chl2c          10   8.6884910545416333E-002   2.5387016219684602E-002  0.39094662499999999        3.4051497743929633E-005   1.9019815944473735E-006
 chl          10   2.0863697422327842E-005   2.4013027453624418E-004   8.6884910545416333E-002
 chl2c          11   2.1820572217820047E-002   2.1820572217820047E-002  0.49737575000000001        6.4253097744925783E-005   9.8394127938240081E-017
 chl          11   5.1834016745183750E-006   2.3754655115255338E-004   2.1820572217820047E-002
 chl2c          12   4.5290941298723353E-002   4.5290941298723353E-002  0.30768942500000002        2.8900369445652467E-005   1.5003374842049622E-017
 chl          12   1.0758706903957985E-005   2.3754655115241000E-004   4.5290941298723353E-002
 chl2c          13   3.7935816987997487E-002   3.7935816987997487E-002  0.75666275000000005        6.4253097744925783E-005   8.8905155945082145E-017
 chl          13   9.0358066838925760E-006   2.3818669008107604E-004   3.7935816987997487E-002
 chl2c          14   4.6856526101924839E-002   4.6856526101924839E-002  0.39804095000000000        2.8900369445652467E-005   5.7565123681567285E-017
 chl          14   1.1130606174498548E-005   2.3754655115248310E-004   4.6856526101924839E-002
 chl2c          15   5.5493257963422568E-002   2.0954299823745293E-002  0.25607262500000000        6.4253097744925783E-005   2.2760468351816861E-006
 chl          15   1.3354395131016974E-005   2.4064896567830448E-004   5.5493257963422568E-002
 chl2c          16   3.7823443882273475E-002   3.7823443882273475E-002  0.71433214999999994        6.4253097744925783E-005   1.1125806045685125E-016
 chl          16   9.0090409068446837E-006   2.3818669010906501E-004   3.7823443882273475E-002
 chl2c          17   3.7542254757581245E-002   3.7542254757581245E-002  0.62580860000000005        6.4253097744925783E-005   1.1120246880987845E-016
 chl          17   8.9420653999395720E-006   2.3818669010906490E-004   3.7542254757581245E-002
 chl2c          18   2.5694475239060960E-002   2.5694475239060960E-002  0.47925950000000000        3.4051497743929633E-005   1.0270724587496171E-016
 chl          18   6.1036339767138013E-006   2.3754655115256081E-004   2.5694475239060960E-002
 chl2c          19   4.4631058188721366E-002   3.7570220750293731E-002  0.63367130000000005        6.4253097744925783E-005   1.5424828027249714E-006
 chl          19   1.0730663036989240E-005   2.4043039695843392E-004   4.4631058188721366E-002
 chl2c          20   3.7020645196759419E-002   3.7020645196759419E-002  0.50678202500000002        6.4253097744925783E-005   9.7883347908454022E-017
 chl          20   8.8178249440825852E-006   2.3818669008109151E-004   3.7020645196759419E-002
 chl2c          21   3.9499241647457821E-002   3.7838475073783531E-002  0.71973185000000006        6.4253097744925783E-005   1.3426601749387664E-006
 chl          21   9.4857374561688204E-006   2.4014986264373826E-004   3.9499241647457821E-002
 chl2c          22   6.4638478515282524E-002   3.7613353106285476E-002  0.64616892500000001        6.4253097744925783E-005   2.3074314682910307E-006
 chl          22   1.5610811892545355E-005   2.4150958146167503E-004   6.4638478515282524E-002
 chl2c          23   3.2286562315070731E-002   3.2286562315070731E-002  0.41564179999999995        4.1591462659238735E-005   2.0641751505095085E-017
 chl          23   7.6695615265127309E-006   2.3754655115241954E-004   3.2286562315070731E-002
 chl2c          24   3.7348402796863071E-002   3.7348402796863071E-002  0.57597492500000003        6.4253097744925783E-005   7.9485266521431556E-017
 chl          24   8.8958924419990142E-006   2.3818669008105988E-004   3.7348402796863071E-002
 chl2c          25   4.5426679235459781E-002   4.5426679235459781E-002  0.31406487500000002        2.8900369445652467E-005   1.5863040033464526E-017
 chl          25   1.0790950982690334E-005   2.3754655115241146E-004   4.5426679235459781E-002
 chl2c          26   4.7955660680174553E-002   4.7955660680174553E-002  0.49427735000000000        2.8900369445652467E-005   1.4434660727885874E-017
 chl          26   1.1391701802810654E-005   2.3754655115240902E-004   4.7955660680174553E-002
 chl2c          27   4.5333133499525620E-002   4.5333133499525620E-002  0.30964730000000001        2.8900369445652467E-005   5.7095975034856032E-017
 chl          27   1.0768729515747371E-005   2.3754655115248229E-004   4.5333133499525620E-002
 chl2c          28   3.1209236063453518E-002   3.1209236063453518E-002  0.28776342500000002        4.1591462659238735E-005   5.6761765656330905E-017
 chl          28   7.4136463909770394E-006   2.3754655115248175E-004   3.1209236063453518E-002
 chl2c          29   5.5806897712549257E-002   3.7743217595736761E-002  0.68676297499999994        6.4253097744925783E-005   1.9514602135124188E-006
 chl          29   1.3450351961030440E-005   2.4101594090233523E-004   5.5806897712549257E-002
 chl2c          30   2.5380056985171612E-002   2.5380056985171612E-002  0.38930277499999999        3.4051497743929633E-005   1.1258795204786338E-016
 chl          30   6.0289450048834064E-006   2.3754655115257772E-004   2.5380056985171612E-002
 chl2c          31   4.4879345106098673E-002   3.7576959810037038E-002  0.63559385000000002        6.4253097744925783E-005   1.5513601701747421E-006
 chl          31   1.0790957541227910E-005   2.4044373900102928E-004   4.4879345106098673E-002
 chl2c          32   5.8435544121295466E-002   2.0893126428578448E-002  0.24722667500000001        6.4253097744925783E-005   2.4584133591792609E-006
 chl          32   1.4074966009542038E-005   2.4086309490549857E-004   5.8435544121295466E-002
 chl2c          33   4.7764506699886265E-002   3.7458922634011876E-002  0.60343137499999999        6.4253097744925783E-005   1.6664134270645703E-006
 chl          33   1.1492300193023737E-005   2.4060334727692481E-004   4.7764506699886265E-002
 chl2c          34   3.9719250737999409E-002   2.5350269098008315E-002  0.38241020000000003        3.4051497743929633E-005   7.5463006504615954E-007
 chl          34   9.4781017307432461E-006   2.3862740496450368E-004   3.9719250737999409E-002
 chl2c          35   2.5740370148566064E-002   2.5740370148566064E-002  0.49574644999999995        3.4051497743929633E-005   8.1308571585384283E-017
 chl          35   6.1145361541812508E-006   2.3754655115252403E-004   2.5740370148566064E-002
 chl2c          36   3.7770393924465726E-002   3.7770393924465726E-002  0.69587337500000002        6.4253097744925783E-005   8.4694767771619410E-017
 chl          36   8.9964051129823057E-006   2.3818669010901937E-004   3.7770393924465726E-002
 chl2c          37   2.1353674699533250E-002   2.1353674699533250E-002  0.33194060000000003        6.4253097744925783E-005   7.4449205685573796E-017
 chl          37   5.0724917793067818E-006   2.3754655115251227E-004   2.1353674699533250E-002
 chl2c          38   2.1543295686358745E-002   2.1543295686358745E-002  0.38455722500000000        6.4253097744925783E-005   1.1492282867611875E-016
 chl          38   5.1175355907548108E-006   2.3754655115258171E-004   2.1543295686358745E-002
 chl2c          39   2.5670077108751441E-002   2.5670077108751441E-002  0.47091117500000002        3.4051497743929633E-005   9.2518553096163361E-017
 chl          39   6.0978382850037542E-006   2.3754655115254327E-004   2.5670077108751441E-002
 chl2c          40   3.7687445774703773E-002   3.7687445774703773E-002  0.66875547499999999        6.4253097744925783E-005   1.1147270044630163E-016
 chl          40   8.9766479677415729E-006   2.3818669010906537E-004   3.7687445774703773E-002
 chl2c          41   2.5582381488167241E-002   2.5582381488167241E-002  0.44304987499999998        3.4051497743929633E-005   6.7042279168562950E-017
 chl          41   6.0770064927816774E-006   2.3754655115249955E-004   2.5582381488167241E-002
 chl2c          42   3.7949995630725070E-002   3.7949995630725070E-002  0.76234377499999995        6.4253097744925783E-005   9.4038577242052732E-017
 chl          42   9.0391838478740391E-006   2.3818669008108493E-004   3.7949995630725070E-002
 chl2c          43   2.1185090152268007E-002   2.1185090152268007E-002  0.29539925000000000        6.4253097744925783E-005   3.2702103484356606E-007
 chl          43   5.0441557810920195E-006   2.3809933046482732E-004   2.1185090152268007E-002
 chl2c          44   3.7536352708156646E-002   3.7536352708156646E-002  0.62417262500000004        6.4253097744925783E-005   8.0343995616322121E-017
 chl          44   8.9406596092711142E-006   2.3818669008106134E-004   3.7536352708156646E-002
 chl2c          45   4.6544927192009838E-002   4.6544927192009838E-002  0.37662252499999999        2.8900369445652467E-005   1.9061711011091452E-017
 chl          45   1.1056586933993063E-005   2.3754655127897800E-004   4.6544927192009838E-002
 chl2c          46   5.2890876708480417E-002   3.7083195475449568E-002  0.51876034999999998        6.4253097744925783E-005   1.8921142724535884E-006
 chl          46   1.2741833610999586E-005   2.4090796757310294E-004   5.2890876708480417E-002
 chl2c          47   3.7519784612651236E-002   3.7519784612651236E-002  0.61962282499999999        6.4253097744925783E-005   1.0259070044284601E-016
 chl          47   8.9367133094431696E-006   2.3818669008109962E-004   3.7519784612651236E-002
 chl2c          48   3.7823212136301673E-002   3.7823212136301673E-002  0.71424949999999998        6.4253097744925783E-005   9.8665663699729704E-017
 chl          48   9.0089857069807169E-006   2.3818669008109287E-004   3.7823212136301673E-002
 chl2c          49   3.7152990741888416E-002   3.7152990741888416E-002  0.53276120000000005        6.4253097744925783E-005   9.1824427796423888E-017
 chl          49   8.8493478914234524E-006   2.3818669008108110E-004   3.7152990741888416E-002
 chl2c          50   4.9948557711997174E-002   2.1533072915600981E-002  0.38132569999999999        6.4253097744925783E-005   1.8465478026035874E-006
 chl          50   1.1995942914369381E-005   2.4016595200882182E-004   4.9948557711997174E-002
 chl2c          51   2.0700971146093840E-002   2.0700971146093840E-002  0.22275920000000002        6.4253097744925783E-005   1.2213932326625853E-016
 chl          51   4.9174443012639552E-006   2.3754655115259410E-004   2.0700971146093840E-002
 chl2c          52   3.7581825176985564E-002   3.7581825176985564E-002  0.63698869999999996        6.4253097744925783E-005   1.0917781382048492E-016
 chl          52   8.9514905471635835E-006   2.3818669010906143E-004   3.7581825176985564E-002
 chl2c          53   3.7925801262726190E-002   3.7925801262726190E-002  0.75269794999999995        6.4253097744925783E-005   9.7778342378117168E-017
 chl          53   9.0334210725020711E-006   2.3818669010904187E-004   3.7925801262726190E-002
 chl2c          54   3.7082433371327092E-002   3.7082433371327092E-002  0.51861124999999997        6.4253097744925783E-005   8.0214982005150602E-017
 chl          54   8.8325420648678842E-006   2.3818669008106113E-004   3.7082433371327092E-002
 chl2c          55   6.3416190729166239E-002   3.7357235588660491E-002  0.57808280000000001        6.4253097744925783E-005   2.2883807256134105E-006
 chl          55   1.5313068555770433E-005   2.4146938470600502E-004   6.3416190729166239E-002
 chl2c          56   3.7507394187257688E-002   3.7507394187257688E-002  0.61626080000000005        6.4253097744925783E-005   1.0946616870603616E-016
 chl          56   8.9337620760787766E-006   2.3818669010906192E-004   3.7507394187257688E-002
 chl2c          57   3.7727617852646313E-002   3.7727617852646313E-002  0.68163462500000005        6.4253097744925783E-005   1.1915049735413901E-006
 chl          57   9.0537021425484909E-006   2.3997545188009906E-004   3.7727617852646313E-002
 chl2c          58   5.3055777107622132E-002   3.7765358178394853E-002  0.69416802499999997        6.4253097744925783E-005   1.8455562494552425E-006
 chl          58   1.2779352076397370E-005   2.4086636315730176E-004   5.3055777107622132E-002
 chl2c          59   3.7173699120809672E-002   3.7173699120809672E-002  0.53705127500000005        6.4253097744925783E-005   2.0296939546447044E-007
 chl          59   8.8672355959487896E-006   2.3853519573425907E-004   3.7173699120809672E-002
 chl2c          60   3.7607757740906807E-002   3.7607757740906807E-002  0.64452155000000000        6.4253097744925783E-005   1.2246606920720652E-006
 chl          60   9.0261365245238058E-006   2.4000730345871894E-004   3.7607757740906807E-002
 chl2c          61   3.7805373434125003E-002   3.7805373434125003E-002  0.70794139999999994        6.4253097744925783E-005   9.5696411536667048E-017
 chl          61   9.0047367655537213E-006   2.3818669008108777E-004   3.7805373434125003E-002
 chl2c          62   3.7956103087269030E-002   3.7956103087269030E-002  0.76481592499999995        6.4253097744925783E-005   7.8108121359948284E-017
 chl          62   9.0406385627320188E-006   2.3818669008105752E-004   3.7956103087269030E-002
 chl2c          63   4.8041797309884039E-002   3.7855601011927406E-002  0.72597904999999996        6.4253097744925783E-005   1.6527908907225672E-006
 chl          63   1.1558622132563949E-005   2.4059512299274234E-004   4.8041797309884039E-002
 chl2c          64   2.5708982294816416E-002   2.5708982294816416E-002  0.48435739999999999        3.4051497743929633E-005   6.5229508521789669E-017
 chl          64   6.1070800777742330E-006   2.3754655115249644E-004   2.5708982294816416E-002
 chl2c          65   3.7953597170552002E-002   3.7953597170552002E-002  0.76379975000000000        6.4253097744925783E-005   1.4097989248586076E-007
 chl          65   9.0492271785630074E-006   2.3842870908648037E-004   3.7953597170552002E-002
 chl2c          66   3.1840477731474713E-002   3.1840477731474713E-002  0.35213202499999996        4.1591462659238735E-005   1.5771587101222855E-017
 chl          66   7.5635956721569707E-006   2.3754655115241130E-004   3.1840477731474713E-002
 chl2c          67   3.7937587124568600E-002   3.7937587124568600E-002  0.75736760000000003        6.4253097744925783E-005   9.1302522258566249E-017
 chl          67   9.0362283068635992E-006   2.3818669008108018E-004   3.7937587124568600E-002
 chl2c          68   5.1156956871525869E-002   3.7855407263856986E-002  0.72590779999999999        6.4253097744925783E-005   1.7680999182095362E-006
 chl          68   1.2316504961613836E-005   2.4075914039502306E-004   5.1156956871525869E-002
 chl2c          69   4.5250201365677305E-002   2.1732330561541505E-002  0.45524217500000003        6.4253097744925783E-005   1.6141791227094723E-006
 chl          69   1.0853953832131847E-005   2.3986531561304104E-004   4.5250201365677305E-002
 chl2c          70   3.2658010878182209E-002   3.2658010878182209E-002  0.48694062500000002        4.1591462659238735E-005   6.9229175083802672E-017
 chl          70   7.7577978516131108E-006   2.3754655115250305E-004   3.2658010878182209E-002
 chl2c          71   4.3481058864416305E-002   4.3481058864416305E-002  0.23986107500000001        2.8900369445652467E-005   1.7578316897274244E-017
 chl          71   1.0328775573697208E-005   2.3754655115241436E-004   4.3481058864416305E-002
 chl2c          72   3.7549776402781669E-002   3.7549776402781669E-002  0.62790522500000001        6.4253097744925783E-005   1.0981133185627616E-016
 chl          72   8.9438569557139461E-006   2.3818669010906252E-004   3.7549776402781669E-002
 chl2c          73   3.1852614277819484E-002   3.1852614277819484E-002  0.35362212500000001        4.1591462659238735E-005   1.9664582783477360E-017
 chl          73   7.5664786668842827E-006   2.3754655115241789E-004   3.1852614277819484E-002
 chl2c          74   4.2585855967720777E-002   3.7616827685877569E-002  0.64719590000000005        6.4253097744925783E-005   1.4645016170538410E-006
 chl          74   1.0234235623210759E-005   2.4032006380165526E-004   4.2585855967720777E-002
 chl2c          75   3.7826830779512356E-002   3.7826830779512356E-002  0.71554212500000003        6.4253097744925783E-005   8.6592100080139797E-017
 chl          75   9.0098476206861484E-006   2.3818669010902262E-004   3.7826830779512356E-002
 chl2c          76   5.6998815009275033E-002   3.7257729557919804E-002  0.55513977500000000        6.4253097744925783E-005   2.0407038952437550E-006
 chl          76   1.3743626329624087E-005   2.4112126414185418E-004   5.6998815009275033E-002
 chl2c          77   3.7138172437479272E-002   3.7138172437479272E-002  0.52973029999999999        6.4253097744925783E-005   8.0494999097379268E-007
 chl          77   8.8946714528849935E-006   2.3950213134097650E-004   3.7138172437479272E-002
 chl2c          78   4.7515248899399322E-002   4.7515248899399322E-002  0.45117492500000000        2.8900369445652467E-005   6.3687760925166575E-007
 chl          78   1.1333098342692169E-005   2.3851497372321331E-004   4.7515248899399322E-002
 prod   7.3671619198216464E-008   46.572108260036600        10.000000000000000     
 chl2c           1   3.7477407714772232E-002   3.7477407714772232E-002  0.60826437499999997        5.5404036139197382E-005   3.6663637142155022E-007
 chl           1   6.2945888219765382E-006   1.6795688938473299E-004   3.7477407714772232E-002
 chl2c           2   3.2640259920490348E-002   3.2640259920490348E-002  0.48302390000000001        3.6116950396690381E-005   6.3919852018095243E-008
 chl           2   5.4605524997689183E-006   1.6729500662894493E-004   3.2640259920490348E-002
 chl2c           3   3.7922212503796585E-002   3.7922212503796585E-002  0.75128689999999998        5.5404036139197382E-005   9.6134927965210328E-017
 chl           3   6.3525588315791260E-006   1.6751551167915477E-004   3.7922212503796585E-002
 chl2c           4   6.8790637664803464E-002   3.7976509103863923E-002  0.77318742499999993        5.5404036139197382E-005   2.0917422039604542E-006
 chl           4   1.1669787724283003E-005   1.6964209259327475E-004   6.8790637664803464E-002
 chl2c           5   6.4976588053177436E-002   2.5710500362372445E-002  0.48489679999999996        2.9476668823656340E-005   1.1058286770433065E-006
 chl           5   1.0937007901178080E-005   1.6832228697861347E-004   6.4976588053177436E-002
 chl2c           6   3.1261039902252048E-002   3.1261039902252048E-002  0.29222855000000003        3.6116950396690381E-005   5.6404950144882845E-017
 chl           6   5.2274992357859765E-006   1.6722090026856040E-004   3.1261039902252048E-002
 chl2c           7   4.3064391842467263E-002   4.3064391842467263E-002  0.22770740000000000        2.5237072500398821E-005   8.7783956356014221E-008
 chl           7   7.2056470031376789E-006   1.6732262305007046E-004   4.3064391842467263E-002
 chl2c           8   4.7969800906495587E-002   4.7969800906495587E-002  0.49578364999999996        2.5237072500398821E-005   3.8717207965013260E-008
 chl           8   8.0237030063321920E-006   1.6726571415154033E-004   4.7969800906495587E-002
 chl2c           9   7.8567893091342877E-002   2.4803669054600401E-002  0.28700202499999999        2.9476668823656340E-005   1.5944453438505316E-006
 chl           9   1.3254410465344680E-005   1.6870008783276304E-004   7.8567893091342877E-002
 chl2c          10   8.6405643362090084E-002   2.5387016219684602E-002  0.39094662499999999        2.9476668823656340E-005   1.6347910056419592E-006
 chl          10   1.4583890836650899E-005   1.6878400841870806E-004   8.6405643362090084E-002
 chl2c          11   2.1820572217820047E-002   2.1820572217820047E-002  0.49737575000000001        5.5404036139197382E-005   8.8405626404606398E-017
 chl          11   3.6488557306398509E-006   1.6722090026859913E-004   2.1820572217820047E-002
 chl2c          12   4.5290941298723353E-002   4.5290941298723353E-002  0.30768942500000002        2.5237072500398821E-005   4.3490924442214242E-018
 chl          12   7.5735919779801897E-006   1.6722090026849743E-004   4.5290941298723353E-002
 chl2c          13   3.7935816987997487E-002   3.7935816987997487E-002  0.75666275000000005        5.5404036139197382E-005   7.9985420176058524E-017
 chl          13   6.3548377929645245E-006   1.6751551165947293E-004   3.7935816987997487E-002
 chl2c          14   4.6856526101924839E-002   4.6856526101924839E-002  0.39804095000000000        2.5237072500398821E-005   4.3830225879413039E-017
 chl          14   7.8353904782204589E-006   1.6722090026854519E-004   4.6856526101924839E-002
 chl2c          15   5.5970475842086899E-002   2.0954299823745293E-002  0.25607262500000000        5.5404036139197382E-005   1.9841833806589809E-006
 chl          15   9.4657997714628673E-006   1.6912130241967814E-004   5.5970475842086899E-002
 chl2c          16   3.7823443882273475E-002   3.7823443882273475E-002  0.71433214999999994        5.5404036139197382E-005   1.0006707375112145E-016
 chl          16   6.3360135554070156E-006   1.6751551167915949E-004   3.7823443882273475E-002
 chl2c          17   3.7542254757581245E-002   3.7542254757581245E-002  0.62580860000000005        5.5404036139197382E-005   1.0001715092779745E-016
 chl          17   6.2889100153055803E-006   1.6751551167915944E-004   3.7542254757581245E-002
 chl2c          18   2.5694475239060960E-002   2.5694475239060960E-002  0.47925950000000000        2.9476668823656340E-005   9.2266544138644959E-017
 chl          18   4.2966532814051233E-006   1.6722090026860382E-004   2.5694475239060960E-002
 chl2c          19   4.6985800903515229E-002   3.7570220750293731E-002  0.63367130000000005        5.5404036139197382E-005   1.4058426864707407E-006
 chl          19   7.9383098304729851E-006   1.6895125075710017E-004   4.6985800903515229E-002
 chl2c          20   3.7020645196759419E-002   3.7020645196759419E-002  0.50678202500000002        5.5404036139197382E-005   8.8053235006445147E-017
 chl          20   6.2015323220993231E-006   1.6751551165948266E-004   3.7020645196759419E-002
 chl2c          21   4.3364506308291646E-002   3.7838475073783531E-002  0.71973185000000006        5.5404036139197382E-005   1.2783032867384122E-006
 chl          21   7.3211039051668767E-006   1.6882710143449787E-004   4.3364506308291646E-002
 chl2c          22   6.6411778947310263E-002   3.7613353106285476E-002  0.64616892500000001        5.5404036139197382E-005   2.0504844490552595E-006
 chl          22   1.1262701111572350E-005   1.6958890862580183E-004   6.6411778947310263E-002
 chl2c          23   3.2286562315070731E-002   3.2286562315070731E-002  0.41564179999999995        3.6116950396690381E-005   6.0285343541346213E-018
 chl          23   5.3989880169011330E-006   1.6722090026849939E-004   3.2286562315070731E-002
 chl2c          24   3.7348402796863071E-002   3.7348402796863071E-002  0.57597492500000003        5.5404036139197382E-005   7.1518221760587424E-017
 chl          24   6.2564368041802241E-006   1.6751551165946268E-004   3.7348402796863071E-002
 chl2c          25   4.5426679235459781E-002   4.5426679235459781E-002  0.31406487500000002        2.5237072500398821E-005   4.6035290026921233E-018
 chl          25   7.5962901979618571E-006   1.6722090026849773E-004   4.5426679235459781E-002
 chl2c          26   4.7955660680174553E-002   4.7955660680174553E-002  0.49427735000000000        2.5237072500398821E-005   4.1810873785175899E-018
 chl          26   8.0191887519093633E-006   1.6722090026849724E-004   4.7955660680174553E-002
 chl2c          27   4.5333133499525620E-002   4.5333133499525620E-002  0.30964730000000001        2.5237072500398821E-005   4.3473428248457360E-017
 chl          27   7.5806473957847989E-006   1.6722090026854476E-004   4.5333133499525620E-002
 chl2c          28   3.1209236063453518E-002   3.1209236063453518E-002  0.28776342500000002        3.6116950396690381E-005   4.3219250297032005E-017
 chl          28   5.2188365512242215E-006   1.6722090026854446E-004   3.1209236063453518E-002
 chl2c          29   5.6620414535470766E-002   3.7743217595736761E-002  0.68676297499999994        5.5404036139197382E-005   1.7094346895834579E-006
 chl          29   9.5833984882296061E-006   1.6925694675417702E-004   5.6620414535470766E-002
 chl2c          30   2.5380056985171612E-002   2.5380056985171612E-002  0.38930277499999999        2.9476668823656340E-005   1.0110435412792732E-016
 chl          30   4.2440759779291360E-006   1.6722090026861453E-004   2.5380056985171612E-002
 chl2c          31   4.3085547800691938E-002   3.7576959810037038E-002  0.63559385000000002        5.5404036139197382E-005   1.2803487256517301E-006
 chl          31   7.2739788516172039E-006   1.6882642145495447E-004   4.3085547800691938E-002
 chl2c          32   5.9710178818842510E-002   2.0893126428578448E-002  0.24722667500000001        5.5404036139197382E-005   2.1807989458085898E-006
 chl          32   1.0107990883670778E-005   1.6928421725779589E-004   5.9710178818842510E-002
 chl2c          33   4.9929234155407953E-002   3.7458922634011876E-002  0.60343137499999999        5.5404036139197382E-005   1.5079081730103551E-006
 chl          33   8.4405781134839733E-006   1.6905082275470382E-004   4.9929234155407953E-002
 chl2c          34   3.3816039143889337E-002   2.5350269098008315E-002  0.38241020000000003        2.9476668823656340E-005   5.4673956569476792E-007
 chl          34   5.6734968465958459E-006   1.6777532171803936E-004   3.3816039143889337E-002
 chl2c          35   2.5740370148566064E-002   2.5740370148566064E-002  0.49574644999999995        2.9476668823656340E-005   7.3095104450987065E-017
 chl          35   4.3043278694897170E-006   1.6722090026858067E-004   2.5740370148566064E-002
 chl2c          36   3.7770393924465726E-002   3.7770393924465726E-002  0.69587337500000002        5.5404036139197382E-005   7.6201154554868039E-017
 chl          36   6.3271268645792045E-006   1.6751551167913068E-004   3.7770393924465726E-002
 chl2c          37   2.1353674699533250E-002   2.1353674699533250E-002  0.33194060000000003        5.5404036139197382E-005   6.6941802512885727E-017
 chl          37   3.5707807072982053E-006   1.6722090026857325E-004   2.1353674699533250E-002
 chl2c          38   2.1543295686358745E-002   2.1543295686358745E-002  0.38455722500000000        5.5404036139197382E-005   1.0319128762384172E-016
 chl          38   3.6024892994259234E-006   1.6722090026861705E-004   2.1543295686358745E-002
 chl2c          39   2.5670077108751441E-002   2.5670077108751441E-002  0.47091117500000002        2.9476668823656340E-005   8.3143291082214973E-017
 chl          39   4.2925734040896126E-006   1.6722090026859282E-004   2.5670077108751441E-002
 chl2c          40   3.7687445774703773E-002   3.7687445774703773E-002  0.66875547499999999        5.5404036139197382E-005   1.0025982534008392E-016
 chl          40   6.3132317628300895E-006   1.6751551167915973E-004   3.7687445774703773E-002
 chl2c          41   2.5582381488167241E-002   2.5582381488167241E-002  0.44304987499999998        2.9476668823656340E-005   6.0293593451957031E-017
 chl          41   4.2779088634652038E-006   1.6722090026856525E-004   2.5582381488167241E-002
 chl2c          42   3.7949995630725070E-002   3.7949995630725070E-002  0.76234377499999995        5.5404036139197382E-005   8.4598613657978352E-017
 chl          42   6.3572129355558831E-006   1.6751551165947848E-004   3.7949995630725070E-002
 chl2c          43   2.1185090152268007E-002   2.1185090152268007E-002  0.29539925000000000        5.5404036139197382E-005   4.4640051757176444E-007
 chl          43   3.5532029407653279E-006   1.6772187020336723E-004   2.1185090152268007E-002
 chl2c          44   3.7536352708156646E-002   3.7536352708156646E-002  0.62417262500000004        5.5404036139197382E-005   7.2290201568227537E-017
 chl          44   6.2879213297369527E-006   1.6751551165946360E-004   3.7536352708156646E-002
 chl2c          45   4.6544927192009838E-002   4.6544927192009838E-002  0.37662252499999999        2.5237072500398821E-005   5.5553614375191949E-018
 chl          45   7.7832846279822667E-006   1.6722090026855576E-004   4.6544927192009838E-002
 chl2c          46   5.2539449267219790E-002   3.7083195475449568E-002  0.51876034999999998        5.5404036139197382E-005   1.6194664668290655E-006
 chl          46   8.8872196629684227E-006   1.6915327029347644E-004   5.2539449267219790E-002
 chl2c          47   3.7519784612651236E-002   3.7519784612651236E-002  0.61962282499999999        5.5404036139197382E-005   9.2282281821645998E-017
 chl          47   6.2851459167420486E-006   1.6751551165948778E-004   3.7519784612651236E-002
 chl2c          48   3.7823212136301673E-002   3.7823212136301673E-002  0.71424949999999998        5.5404036139197382E-005   8.8756109447234758E-017
 chl          48   6.3359747336177620E-006   1.6751551165948352E-004   3.7823212136301673E-002
 chl2c          49   3.7152990741888416E-002   3.7152990741888416E-002  0.53276120000000005        5.5404036139197382E-005   8.2608943785527983E-017
 chl          49   6.2237022538072163E-006   1.6751551165947610E-004   3.7152990741888416E-002
 chl2c          50   5.1426004949108713E-002   2.1533072915600981E-002  0.38132569999999999        5.5404036139197382E-005   1.6466767650935071E-006
 chl          50   8.6838595219129262E-006   1.6886125084976934E-004   5.1426004949108713E-002
 chl2c          51   2.0700971146093840E-002   2.0700971146093840E-002  0.22275920000000002        5.5404036139197382E-005   1.0963759242500783E-016
 chl          51   3.4616350314846381E-006   1.6722090026862483E-004   2.0700971146093840E-002
 chl2c          52   3.7581825176985564E-002   3.7581825176985564E-002  0.63698869999999996        5.5404036139197382E-005   9.8198882557157178E-017
 chl          52   6.2955386743593720E-006   1.6751551167915727E-004   3.7581825176985564E-002
 chl2c          53   3.7925801262726190E-002   3.7925801262726190E-002  0.75269794999999995        5.5404036139197382E-005   8.7958890962307906E-017
 chl          53   6.3531600043671369E-006   1.6751551167914488E-004   3.7925801262726190E-002
 chl2c          54   3.7082433371327092E-002   3.7082433371327092E-002  0.51861124999999997        5.5404036139197382E-005   7.2174222218313266E-017
 chl          54   6.2118827997758209E-006   1.6751551165946347E-004   3.7082433371327092E-002
 chl2c          55   6.5133651533176504E-002   3.7357235588660491E-002  0.57808280000000001        5.5404036139197382E-005   2.0334456504080036E-006
 chl          55   1.1044288916867958E-005   1.6956348457206386E-004   6.5133651533176504E-002
 chl2c          56   3.7507394187257688E-002   3.7507394187257688E-002  0.61626080000000005        5.5404036139197382E-005   9.8457852098368880E-017
 chl          56   6.2830703290303308E-006   1.6751551167915754E-004   3.7507394187257688E-002
 chl2c          57   3.7727617852646313E-002   3.7727617852646313E-002  0.68163462500000005        5.5404036139197382E-005   9.3061298423326770E-007
 chl          57   6.3580784840720118E-006   1.6852583984774537E-004   3.7727617852646313E-002
 chl2c          58   5.6638215201270249E-002   3.7765358178394853E-002  0.69416802499999997        5.5404036139197382E-005   1.7083823513420936E-006
 chl          58   9.5863573999935988E-006   1.6925599378312685E-004   5.6638215201270249E-002
 chl2c          59   3.7173699120809672E-002   3.7173699120809672E-002  0.53705127500000005        5.5404036139197382E-005   2.8121602712163236E-007
 chl          59   6.2397823603313334E-006   1.6785476043298394E-004   3.7173699120809672E-002
 chl2c          60   3.9130766232610435E-002   3.7607757740906807E-002  0.64452155000000000        5.5404036139197382E-005   1.1540679970868733E-006
 chl          60   6.6013345716821274E-006   1.6869934343838043E-004   3.9130766232610435E-002
 chl2c          61   3.7805373434125003E-002   3.7805373434125003E-002  0.70794139999999994        5.5404036139197382E-005   8.6088273902777348E-017
 chl          61   6.3329864742951724E-006   1.6751551165948027E-004   3.7805373434125003E-002
 chl2c          62   3.7956103087269030E-002   3.7956103087269030E-002  0.76481592499999995        5.5404036139197382E-005   7.0280156451239626E-017
 chl          62   6.3582360292631237E-006   1.6751551165946114E-004   3.7956103087269030E-002
 chl2c          63   4.9799356550834915E-002   3.7855601011927406E-002  0.72597904999999996        5.5404036139197382E-005   1.4811433859257852E-006
 chl          63   8.4176613427489030E-006   1.6903152823181963E-004   4.9799356550834915E-002
 chl2c          64   2.5708982294816416E-002   2.5708982294816416E-002  0.48435739999999999        2.9476668823656340E-005   5.8665964688116839E-017
 chl          64   4.2990791643277546E-006   1.6722090026856327E-004   2.5708982294816416E-002
 chl2c          65   3.7953597170552002E-002   3.7953597170552002E-002  0.76379975000000000        5.5404036139197382E-005   2.0192513059562886E-007
 chl          65   6.3670659535425814E-006   1.6775922252984112E-004   3.7953597170552002E-002
 chl2c          66   3.1840477731474713E-002   3.1840477731474713E-002  0.35213202499999996        3.6116950396690381E-005   4.5764339545935115E-018
 chl          66   5.3243933512362548E-006   1.6722090026849770E-004   3.1840477731474713E-002
 chl2c          67   3.7937587124568600E-002   3.7937587124568600E-002  0.75736760000000003        5.5404036139197382E-005   8.2139930104202007E-017
 chl          67   6.3551343182980401E-006   1.6751551165947553E-004   3.7937587124568600E-002
 chl2c          68   5.5333594340233619E-002   3.7855407263856986E-002  0.72590779999999999        5.5404036139197382E-005   1.6593381922659618E-006
 chl          68   9.3629526523039863E-006   1.6920918953381795E-004   5.5333594340233619E-002
 chl2c          69   4.5486611185134682E-002   2.1732330561541505E-002  0.45524217500000003        5.5404036139197382E-005   1.3999503098858400E-006
 chl          69   7.6706451382009255E-006   1.6863522997966797E-004   4.5486611185134682E-002
 chl2c          70   3.2658010878182209E-002   3.2658010878182209E-002  0.48694062500000002        3.6116950396690381E-005   5.2698556964109382E-017
 chl          70   5.4611019800299215E-006   1.6722090026855593E-004   3.2658010878182209E-002
 chl2c          71   4.3481058864416305E-002   4.3481058864416305E-002  0.23986107500000001        2.5237072500398821E-005   5.1129397541439566E-018
 chl          71   7.2709418079352657E-006   1.6722090026849836E-004   4.3481058864416305E-002
 chl2c          72   3.7549776402781669E-002   3.7549776402781669E-002  0.62790522500000001        5.5404036139197382E-005   9.8767837011278453E-017
 chl          72   6.2901700075499409E-006   1.6751551167915792E-004   3.7549776402781669E-002
 chl2c          73   3.1852614277819484E-002   3.1852614277819484E-002  0.35362212500000001        3.6116950396690381E-005   5.7356676361269686E-018
 chl          73   5.3264228354422201E-006   1.6722090026849903E-004   3.1852614277819484E-002
 chl2c          74   4.6356023836373529E-002   3.7616827685877569E-002  0.64719590000000005        5.5404036139197382E-005   1.3832306230888457E-006
 chl          74   7.8308850461943500E-006   1.6892917895278584E-004   4.6356023836373529E-002
 chl2c          75   3.7826830779512356E-002   3.7826830779512356E-002  0.71554212500000003        5.5404036139197382E-005   7.7906524191056609E-017
 chl          75   6.3365809132299806E-006   1.6751551167913276E-004   3.7826830779512356E-002
 chl2c          76   5.8516426465053416E-002   3.7257729557919804E-002  0.55513977500000000        5.5404036139197382E-005   1.8120259619131568E-006
 chl          76   9.9094792234692311E-006   1.6934525606048876E-004   5.8516426465053416E-002
 chl2c          77   3.7138172437479272E-002   3.7138172437479272E-002  0.52973029999999999        5.5404036139197382E-005   8.0170559120777818E-007
 chl          77   6.2545444780438973E-006   1.6841282345202068E-004   3.7138172437479272E-002
 chl2c          78   4.7515248899399322E-002   4.7515248899399322E-002  0.45117492500000000        2.5237072500398821E-005   3.8129242037191648E-007
 chl          78   7.9664850770669146E-006   1.6766165097722185E-004   4.7515248899399322E-002
 prod   2.0939397788818369E-008   40.007541671584939        10.000000000000000     
 chl2c           1   5.0688262880827221E-002   3.7477407714772232E-002  0.60826437499999997        4.7832679163867546E-005   1.3224837403904792E-006
 chl           1   6.3725556212950254E-006   1.2572053684849077E-004   5.0688262880827221E-002
 chl2c           2   3.2640259920490348E-002   3.2640259920490348E-002  0.48302390000000001        3.1379264083045273E-005   4.1185391963394664E-008
 chl           2   4.0661561167534025E-006   1.2457486939927278E-004   3.2640259920490348E-002
 chl2c           3   3.7922212503796585E-002   3.7922212503796585E-002  0.75128689999999998        4.7832679163867546E-005   2.3640301012830123E-016
 chl           3   4.7295914639785641E-006   1.2471823640313869E-004   3.7922212503796585E-002
 chl2c           4  0.16593360704950738        3.7976509103863923E-002  0.77318742499999993        4.7832679163867546E-005   5.0529336235637352E-006
 chl           4   2.1297371570198895E-005   1.2834875314826782E-004  0.16593360704950738     
 chl2c           5  0.12564758427817010        2.5710500362372445E-002  0.48489679999999996        2.5563315600108217E-005   2.1676782433091395E-006
 chl           5   1.5838222668022838E-005   1.2605274314672643E-004  0.12564758427817010     
 chl2c           6   3.1261039902252048E-002   3.1261039902252048E-002  0.29222855000000003        3.1379264083045273E-005   4.5708831681470056E-017
 chl           6   3.8932354887114630E-006   1.2453953870008636E-004   3.1261039902252048E-002
 chl2c           7   4.3064391842467263E-002   4.3064391842467263E-002  0.22770740000000000        2.2045388874378777E-005   6.7652344806257621E-008
 chl           7   5.3657190319564411E-006   1.2459758056225753E-004   4.3064391842467263E-002
 chl2c           8   4.7969800906495587E-002   4.7969800906495587E-002  0.49578364999999996        2.2045388874378777E-005   3.9339844725861102E-008
 chl           8   5.9757559628642817E-006   1.2457329090259170E-004   4.7969800906495587E-002
 chl2c           9  0.14475348727333071        2.4803669054600401E-002  0.28700202499999999        2.5563315600108217E-005   3.7329603032251343E-006
 chl           9   1.8335449309342444E-005   1.2666671908719229E-004  0.14475348727333071     
 chl2c          10  0.15710352323055587        2.5387016219684602E-002  0.39094662499999999        2.5563315600108217E-005   3.3571134351523814E-006
 chl          10   1.9898718374337099E-005   1.2665991166305616E-004  0.15710352323055587     
 chl2c          11   2.1820572217820047E-002   2.1820572217820047E-002  0.49737575000000001        4.7832679163867546E-005   1.9786527255487305E-016
 chl          11   2.7175239981822212E-006   1.2453953870022349E-004   2.1820572217820047E-002
 chl2c          12   4.5290941298723353E-002   4.5290941298723353E-002  0.30768942500000002        2.2045388874378777E-005   3.4187218340707998E-018
 chl          12   5.6405129366339745E-006   1.2453953870004834E-004   4.5290941298723353E-002
 chl2c          13   3.7935816987997487E-002   3.7935816987997487E-002  0.75666275000000005        4.7832679163867546E-005   2.0220462907355755E-016
 chl          13   4.7312881906935028E-006   1.2471823638833020E-004   3.7935816987997487E-002
 chl2c          14   4.6856526101924839E-002   4.6856526101924839E-002  0.39804095000000000        2.2045388874378777E-005   3.5385070820567802E-017
 chl          14   5.8354901458218409E-006   1.2453953870007709E-004   4.6856526101924839E-002
 chl2c          15  0.10213942570904960        2.0954299823745293E-002  0.25607262500000000        4.7832679163867546E-005   4.0636751262746957E-006
 chl          15   1.2983450063913686E-005   1.2711497028481281E-004  0.10213942570904960     
 chl2c          16   3.7823443882273475E-002   3.7823443882273475E-002  0.71433214999999994        4.7832679163867546E-005   2.4445011305114752E-016
 chl          16   4.7172732156905068E-006   1.2471823640314593E-004   3.7823443882273475E-002
 chl2c          17   3.7542254757581245E-002   3.7542254757581245E-002  0.62580860000000005        4.7832679163867546E-005   2.4434860934442412E-016
 chl          17   4.6822038039631444E-006   1.2471823640314585E-004   3.7542254757581245E-002
 chl2c          18   2.5694475239060960E-002   2.5694475239060960E-002  0.47925950000000000        2.5563315600108217E-005   2.0439272751681539E-016
 chl          18   3.1999780934171162E-006   1.2453953870022932E-004   2.5694475239060960E-002
 chl2c          19  0.12286075994583960        3.7570220750293731E-002  0.63367130000000005        4.7832679163867546E-005   3.6451222334106468E-006
 chl          19   1.5647519431975128E-005   1.2735978060751850E-004  0.12286075994583960     
 chl2c          20   3.7020645196759419E-002   3.7020645196759419E-002  0.50678202500000002        4.7832679163867546E-005   2.1952487050476611E-016
 chl          20   4.6171495788985193E-006   1.2471823638834578E-004   3.7020645196759419E-002
 chl2c          21  0.12027287434479846        3.7838475073783531E-002  0.71973185000000006        4.7832679163867546E-005   3.4536128841975357E-006
 chl          21   1.5305051294559922E-005   1.2725272741618678E-004  0.12027287434479846     
 chl2c          22  0.15652317954263126        3.7613353106285476E-002  0.64616892500000001        4.7832679163867546E-005   4.9401195149156915E-006
 chl          22   2.0068514834026381E-005   1.2821433153011337E-004  0.15652317954263126     
 chl2c          23   3.2286562315070731E-002   3.2286562315070731E-002  0.41564179999999995        3.1379264083045273E-005   4.7420083243881259E-018
 chl          23   4.0209535769293098E-006   1.2453953870004945E-004   3.2286562315070731E-002
 chl2c          24   3.7348402796863071E-002   3.7348402796863071E-002  0.57597492500000003        4.7832679163867546E-005   1.8349843798122025E-016
 chl          24   4.6580269287451124E-006   1.2471823638831336E-004   3.7348402796863071E-002
 chl2c          25   4.5426679235459781E-002   4.5426679235459781E-002  0.31406487500000002        2.2045388874378777E-005   3.6190888325470923E-018
 chl          25   5.6574176766592326E-006   1.2453953870004850E-004   4.5426679235459781E-002
 chl2c          26   4.7955660680174553E-002   4.7955660680174553E-002  0.49427735000000000        2.2045388874378777E-005   3.2864408920737264E-018
 chl          26   5.9723758591649787E-006   1.2453953870004820E-004   4.7955660680174553E-002
 chl2c          27   4.5333133499525620E-002   4.5333133499525620E-002  0.30964730000000001        2.2045388874378777E-005   3.5093261923233068E-017
 chl          27   5.6457675338599198E-006   1.2453953870007682E-004   4.5333133499525620E-002
 chl2c          28   3.1209236063453518E-002   3.1209236063453518E-002  0.28776342500000002        3.1379264083045273E-005   3.4885418768877260E-017
 chl          28   3.8867838625242964E-006   1.2453953870007663E-004   3.1209236063453518E-002
 chl2c          29  0.13638740628491003        3.7743217595736761E-002  0.68676297499999994        4.7832679163867546E-005   4.0702089755213010E-006
 chl          29   1.7411572491147729E-005   1.2766261171339656E-004  0.13638740628491003     
 chl2c          30   2.5380056985171612E-002   2.5380056985171612E-002  0.38930277499999999        2.5563315600108217E-005   2.1884656223293141E-016
 chl          30   3.1608205891191355E-006   1.2453953870024233E-004   2.5380056985171612E-002
 chl2c          31   9.5514521718182407E-002   3.7576959810037038E-002  0.63559385000000002        4.7832679163867546E-005   2.6883527149359830E-006
 chl          31   1.2102056192614096E-005   1.2670383492388170E-004   9.5514521718182407E-002
 chl2c          32  0.10829021479614223        2.0893126428578448E-002  0.24722667500000001        4.7832679163867546E-005   4.6085364264070211E-006
 chl          32   1.3791877161611086E-005   1.2736032694712516E-004  0.10829021479614223     
 chl2c          33  0.12715344738457918        3.7458922634011876E-002  0.60343137499999999        4.7832679163867546E-005   3.8529225804434228E-006
 chl          33   1.6210469411365239E-005   1.2748745507729900E-004  0.12715344738457918     
 chl2c          34   5.4449773148809465E-002   2.5350269098008315E-002  0.38241020000000003        2.5563315600108217E-005   8.1150515972595833E-007
 chl          34   6.8137954941272877E-006   1.2513909792618246E-004   5.4449773148809465E-002
 chl2c          35   2.5740370148566064E-002   2.5740370148566064E-002  0.49574644999999995        2.5563315600108217E-005   1.7060221392755225E-016
 chl          35   3.2056938242747882E-006   1.2453953870019890E-004   2.5740370148566064E-002
 chl2c          36   3.7770393924465726E-002   3.7770393924465726E-002  0.69587337500000002        4.7832679163867546E-005   1.9391253529252098E-016
 chl          36   4.7106569185097464E-006   1.2471823640310047E-004   3.7770393924465726E-002
 chl2c          37   2.1353674699533250E-002   2.1353674699533250E-002  0.33194060000000003        4.7832679163867546E-005   1.5897919603320652E-016
 chl          37   2.6593767966337564E-006   1.2453953870018847E-004   2.1353674699533250E-002
 chl2c          38   2.1543295686358745E-002   2.1543295686358745E-002  0.38455722500000000        4.7832679163867546E-005   2.2216442977661859E-016
 chl          38   2.6829921068621033E-006   1.2453953870024534E-004   2.1543295686358745E-002
 chl2c          39   2.5670077108751441E-002   2.5670077108751441E-002  0.47091117500000002        2.5563315600108217E-005   1.8874937983778116E-016
 chl          39   3.1969395615228604E-006   1.2453953870021528E-004   2.5670077108751441E-002
 chl2c          40   3.7687445774703773E-002   3.7687445774703773E-002  0.66875547499999999        4.7832679163867546E-005   2.4484185911536730E-016
 chl          40   4.7003117715602616E-006   1.2471823640314628E-004   3.7687445774703773E-002
 chl2c          41   2.5582381488167241E-002   2.5582381488167241E-002  0.44304987499999998        2.5563315600108217E-005   1.4595637822878757E-016
 chl          41   3.1860179893882896E-006   1.2453953870017676E-004   2.5582381488167241E-002
 chl2c          42   3.7949995630725070E-002   3.7949995630725070E-002  0.76234377499999995        4.7832679163867546E-005   2.1216716566069605E-016
 chl          42   4.7330565260092069E-006   1.2471823638833914E-004   3.7949995630725070E-002
 chl2c          43   5.2738455723114329E-002   2.1185090152268007E-002  0.29539925000000000        4.7832679163867546E-005   1.5354366172061491E-006
 chl          43   6.6269852077859937E-006   1.2565755134315591E-004   5.2738455723114329E-002
 chl2c          44   3.7536352708156646E-002   3.7536352708156646E-002  0.62417262500000004        4.7832679163867546E-005   1.8522699622002459E-016
 chl          44   4.6814677102110458E-006   1.2471823638831494E-004   3.7536352708156646E-002
 chl2c          45   4.6544927192009838E-002   4.6544927192009838E-002  0.37662252499999999        2.2045388874378777E-005   4.3690040792713874E-018
 chl          45   5.7966837613202790E-006   1.2453953870004915E-004   4.6544927192009838E-002
 chl2c          46  0.11786678035096734        3.7083195475449568E-002  0.51876034999999998        4.7832679163867546E-005   3.6477395008767739E-006
 chl          46   1.5006366285981924E-005   1.2731633324757026E-004  0.11786678035096734     
 chl2c          47   3.7519784612651236E-002   3.7519784612651236E-002  0.61962282499999999        4.7832679163867546E-005   2.2841464304039191E-016
 chl          47   4.6794013665607558E-006   1.2471823638835378E-004   3.7519784612651236E-002
 chl2c          48   3.7823212136301673E-002   3.7823212136301673E-002  0.71424949999999998        4.7832679163867546E-005   2.2101124840812517E-016
 chl          48   4.7172443121818717E-006   1.2471823638834711E-004   3.7823212136301673E-002
 chl2c          49   3.7152990741888416E-002   3.7152990741888416E-002  0.53276120000000005        4.7832679163867546E-005   2.0788976365345381E-016
 chl          49   4.6336554818804712E-006   1.2471823638833526E-004   3.7152990741888416E-002
 chl2c          50  0.11069476705644246        2.1533072915600981E-002  0.38132569999999999        4.7832679163867546E-005   3.7302715105381678E-006
 chl          50   1.4069348709689674E-005   1.2710039583457288E-004  0.11069476705644246     
 chl2c          51   2.0700971146093840E-002   2.0700971146093840E-002  0.22275920000000002        4.7832679163867546E-005   2.3219362370486391E-016
 chl          51   2.5780893971818020E-006   1.2453953870025433E-004   2.0700971146093840E-002
 chl2c          52   3.7581825176985564E-002   3.7581825176985564E-002  0.63698869999999996        4.7832679163867546E-005   2.4064010558611737E-016
 chl          52   4.6871389568848587E-006   1.2471823640314251E-004   3.7581825176985564E-002
 chl2c          53   3.7925801262726190E-002   3.7925801262726190E-002  0.75269794999999995        4.7832679163867546E-005   2.1932508829544097E-016
 chl          53   4.7300390476625597E-006   1.2471823640312338E-004   3.7925801262726190E-002
 chl2c          54   3.7082433371327092E-002   3.7082433371327092E-002  0.51861124999999997        4.7832679163867546E-005   1.8496760356355015E-016
 chl          54   4.6248556910591007E-006   1.2471823638831467E-004   3.7082433371327092E-002
 chl2c          55  0.15139728244961692        3.7357235588660491E-002  0.57808280000000001        4.7832679163867546E-005   4.9056316634524497E-006
 chl          55   1.9401657707325925E-005   1.2815063383837520E-004  0.15139728244961692     
 chl2c          56   3.7507394187257688E-002   3.7507394187257688E-002  0.61626080000000005        4.7832679163867546E-005   2.4116967480969874E-016
 chl          56   4.6778560551122760E-006   1.2471823640314300E-004   3.7507394187257688E-002
 chl2c          57   6.5441870536806654E-002   3.7727617852646313E-002  0.68163462500000005        4.7832679163867546E-005   1.7313523925242619E-006
 chl          57   8.2472719205553618E-006   1.2602439161510254E-004   6.5441870536806654E-002
 chl2c          58  0.14421539736377212        3.7765358178394853E-002  0.69416802499999997        4.7832679163867546E-005   4.3535713448074040E-006
 chl          58   1.8438562349388391E-005   1.2785432544958118E-004  0.14421539736377212     
 chl2c          59   4.2812834096956770E-002   3.7173699120809672E-002  0.53705127500000005        4.7832679163867546E-005   1.1126227099859532E-006
 chl          59   5.3756818197841885E-006   1.2556239111874876E-004   4.2812834096956770E-002
 chl2c          60  0.10910580174908902        3.7607757740906807E-002  0.64452155000000000        4.7832679163867546E-005   3.1411513180667838E-006
 chl          60   1.3858623516106930E-005   1.2702004195870036E-004  0.10910580174908902     
 chl2c          61   3.7805373434125003E-002   3.7805373434125003E-002  0.70794139999999994        4.7832679163867546E-005   2.1535054877296713E-016
 chl          61   4.7150195007067471E-006   1.2471823638834201E-004   3.7805373434125003E-002
 chl2c          62   3.7956103087269030E-002   3.7956103087269030E-002  0.76481592499999995        4.7832679163867546E-005   1.8071642880359443E-016
 chl          62   4.7338182372171143E-006   1.2471823638831084E-004   3.7956103087269030E-002
 chl2c          63  0.12930282212167901        3.7855601011927406E-002  0.72597904999999996        4.7832679163867546E-005   3.7626001430596209E-006
 chl          63   1.6481764625504348E-005   1.2746639520361253E-004  0.12930282212167901     
 chl2c          64   2.5708982294816416E-002   2.5708982294816416E-002  0.48435739999999999        2.5563315600108217E-005   1.4269135102615553E-016
 chl          64   3.2017847954473727E-006   1.2453953870017383E-004   2.5708982294816416E-002
 chl2c          65   3.7953597170552002E-002   3.7953597170552002E-002  0.76379975000000000        4.7832679163867546E-005   8.5118001446178873E-007
 chl          65   4.7592331315868974E-006   1.2539610172391147E-004   3.7953597170552002E-002
 chl2c          66   3.1840477731474713E-002   3.1840477731474713E-002  0.35213202499999996        3.1379264083045273E-005   3.5977497749768690E-018
 chl          66   3.9653984086670269E-006   1.2453953870004847E-004   3.1840477731474713E-002
 chl2c          67   3.7937587124568600E-002   3.7937587124568600E-002  0.75736760000000003        4.7832679163867546E-005   2.0687719768579376E-016
 chl          67   4.7315089590049784E-006   1.2471823638833440E-004   3.7937587124568600E-002
 chl2c          68  0.14349219847367153        3.7855407263856986E-002  0.72590779999999999        4.7832679163867546E-005   4.2773172538578270E-006
 chl          68   1.8340439335834538E-005   1.2781488841150977E-004  0.14349219847367153     
 chl2c          69   9.9544894712176771E-002   2.1732330561541505E-002  0.45524217500000003        4.7832679163867546E-005   3.0470224067368488E-006
 chl          69   1.2614115101337862E-005   1.2671785065231325E-004   9.9544894712176771E-002
 chl2c          70   3.2658010878182209E-002   3.2658010878182209E-002  0.48694062500000002        3.1379264083045273E-005   4.2657933477147479E-017
 chl          70   4.0672136096311254E-006   1.2453953870008363E-004   3.2658010878182209E-002
 chl2c          71   4.3481058864416305E-002   4.3481058864416305E-002  0.23986107500000001        2.2045388874378777E-005   4.0203661302717906E-018
 chl          71   5.4151110131664183E-006   1.2453953870010271E-004   4.3481058864416305E-002
 chl2c          72   3.7549776402781669E-002   3.7549776402781669E-002  0.62790522500000001        4.7832679163867546E-005   2.4180296176999479E-016
 chl          72   4.6831418902873053E-006   1.2471823640314354E-004   3.7549776402781669E-002
 chl2c          73   3.1852614277819484E-002   3.1852614277819484E-002  0.35362212500000001        3.1379264083045273E-005   4.5111239365601739E-018
 chl          73   3.9669098885502406E-006   1.2453953870004923E-004   3.1852614277819484E-002
 chl2c          74  0.12429566658132009        3.7616827685877569E-002  0.64719590000000005        4.7832679163867546E-005   3.6793205035767257E-006
 chl          74   1.5833670124942257E-005   1.2738714518726300E-004  0.12429566658132009     
 chl2c          75   3.7826830779512356E-002   3.7826830779512356E-002  0.71554212500000003        4.7832679163867546E-005   1.9766285736369398E-016
 chl          75   4.7176956235394266E-006   1.2471823640310383E-004   3.7826830779512356E-002
 chl2c          76  0.13902556637121777        3.7257729557919804E-002  0.55513977500000000        4.7832679163867546E-005   4.4358738182971339E-006
 chl          76   1.7773124563607802E-005   1.2784069166207218E-004  0.13902556637121777     
 chl2c          77   8.3200377710883011E-002   3.7138172437479272E-002  0.52973029999999999        4.7832679163867546E-005   2.3606100805050312E-006
 chl          77   1.0521186835586283E-005   1.2645599845888754E-004   8.3200377710883011E-002
 chl2c          78   4.7515248899399322E-002   4.7515248899399322E-002  0.45117492500000000        2.2045388874378777E-005   1.8224919789814027E-007
 chl          78   5.9252668310378178E-006   1.2470242644804338E-004   4.7515248899399322E-002
 prod   1.6432021470538341E-008   34.429707030488260        10.000000000000000     
 chl2c           1  0.10462112153253550        3.7477407714772232E-002  0.60826437499999997        3.9865615472760761E-005   2.5185884631056086E-006
 chl           1   8.7037343972165113E-006   8.3192899002805941E-005  0.10462112153253550     
 chl2c           2   3.2640259920490348E-002   3.2640259920490348E-002  0.48302390000000001        2.6337978635785614E-005   2.2838917855317750E-008
 chl           2   2.6724610992626914E-006   8.1876219912851221E-005   3.2640259920490348E-002
 chl2c           3   3.7922212503796585E-002   3.7922212503796585E-002  0.75128689999999998        3.9865615472760761E-005   3.3786187981292552E-016
 chl           3   3.1089591852076458E-006   8.1982536881158822E-005   3.7922212503796585E-002
 chl2c           4  0.24333817153829579        3.7976509103863923E-002  0.77318742499999993        3.9865615472760761E-005   7.0780100264881455E-006
 chl           4   2.0718340051613333E-005   8.5142170341132630E-005  0.24333817153829579     
 chl2c           5  0.15032277885364329        2.5710500362372445E-002  0.48489679999999996        2.1437483832847808E-005   2.3352087631731770E-006
 chl           5   1.2462171545308608E-005   8.2902748607660995E-005  0.15032277885364329     
 chl2c           6   3.1261039902252048E-002   3.1261039902252048E-002  0.29222855000000003        2.6337978635785614E-005   3.4623001283034313E-017
 chl           6   2.5591364102503994E-006   8.1863444666344543E-005   3.1261039902252048E-002
 chl2c           7   4.3064391842467263E-002   4.3064391842467263E-002  0.22770740000000000        1.8624563529802537E-005   4.8386410554313964E-008
 chl           7   3.5265640369431846E-006   8.1890487385578717E-005   4.3064391842467263E-002
 chl2c           8   4.7969800906495587E-002   4.7969800906495587E-002  0.49578364999999996        1.8624563529802537E-005   3.4453616535337087E-008
 chl           8   3.9278963552056220E-006   8.1882690379766524E-005   4.7969800906495587E-002
 chl2c           9  0.17919630087562841        2.4803669054600401E-002  0.28700202499999999        2.1437483832847808E-005   5.1134733218886302E-006
 chl           9   1.4958506256026348E-005   8.3475530370508778E-005  0.17919630087562841     
 chl2c          10  0.19013498615756394        2.5387016219684602E-002  0.39094662499999999        2.1437483832847808E-005   3.9676599109155060E-006
 chl          10   1.5853802010675759E-005   8.3381824308429952E-005  0.19013498615756394     
 chl2c          11   2.1820572217820047E-002   2.1820572217820047E-002  0.49737575000000001        3.9865615472760761E-005   2.6548282527919085E-016
 chl          11   1.7863072063444684E-006   8.1863444666481207E-005   2.1820572217820047E-002
 chl2c          12   4.5290941298723353E-002   4.5290941298723353E-002  0.30768942500000002        1.8624563529802537E-005   2.4952835062334330E-018
 chl          12   3.7076724668938374E-006   8.1863444666325542E-005   4.5290941298723353E-002
 chl2c          13   3.7935816987997487E-002   3.7935816987997487E-002  0.75666275000000005        3.9865615472760761E-005   2.9497637264193725E-016
 chl          13   3.1100745149625112E-006   8.1982536871329486E-005   3.7935816987997487E-002
 chl2c          14   4.6856526101924839E-002   4.6856526101924839E-002  0.39804095000000000        1.8624563529802537E-005   2.6698291990774253E-017
 chl          14   3.8358366318018338E-006   8.1863444666339867E-005   4.6856526101924839E-002
 chl2c          15  0.12553755259708424        2.0954299823745293E-002  0.25607262500000000        3.9865615472760761E-005   4.9088309310113960E-006
 chl          15   1.0511956819536135E-005   8.3735556429672572E-005  0.12553755259708424     
 chl2c          16   3.7823443882273475E-002   3.7823443882273475E-002  0.71433214999999994        3.9865615472760761E-005   3.4770159447230157E-016
 chl          16   3.1008618830511559E-006   8.1982536881164894E-005   3.7823443882273475E-002
 chl2c          17   3.7542254757581245E-002   3.7542254757581245E-002  0.62580860000000005        3.9865615472760761E-005   3.4757806096523396E-016
 chl          17   3.0778092852654797E-006   8.1982536881164555E-005   3.7542254757581245E-002
 chl2c          18   2.5694475239060960E-002   2.5694475239060960E-002  0.47925950000000000        2.1437483832847808E-005   2.7250911919045903E-016
 chl          18   2.1034382519672447E-006   8.1863444666485354E-005   2.5694475239060960E-002
 chl2c          19  0.18935677227954631        3.7570220750293731E-002  0.63367130000000005        3.9865615472760761E-005   5.3829809636527207E-006
 chl          19   1.5982732099712095E-005   8.4405389399629596E-005  0.18935677227954631     
 chl2c          20   3.7020645196759419E-002   3.7020645196759419E-002  0.50678202500000002        3.9865615472760761E-005   3.1691589747220126E-016
 chl          20   3.0350464098442177E-006   8.1982536871342496E-005   3.7020645196759419E-002
 chl2c          21  0.19358153544691689        3.7838475073783531E-002  0.71973185000000006        3.9865615472760761E-005   5.2782905816017876E-006
 chl          21   1.6338761139357333E-005   8.4402477238526092E-005  0.19358153544691689     
 chl2c          22  0.22575617846054805        3.7613353106285476E-002  0.64616892500000001        3.9865615472760761E-005   6.9163715565390892E-006
 chl          22   1.9187906406954285E-005   8.4993936989004537E-005  0.22575617846054805     
 chl2c          23   3.2286562315070731E-002   3.2286562315070731E-002  0.41564179999999995        2.6337978635785614E-005   3.4633943683708997E-018
 chl          23   2.6430892075456820E-006   8.1863444666326084E-005   3.2286562315070731E-002
 chl2c          24   3.7348402796863071E-002   3.7348402796863071E-002  0.57597492500000003        3.9865615472760761E-005   2.7075847618091167E-016
 chl          24   3.0619168093785561E-006   8.1982536871315134E-005   3.7348402796863071E-002
 chl2c          25   4.5426679235459781E-002   4.5426679235459781E-002  0.31406487500000002        1.8624563529802537E-005   2.6417899807372581E-018
 chl          25   3.7187844419669852E-006   8.1863444666325624E-005   4.5426679235459781E-002
 chl2c          26   4.7955660680174553E-002   4.7955660680174553E-002  0.49427735000000000        1.8624563529802537E-005   2.3985767850327985E-018
 chl          26   3.9258155745285508E-006   8.1863444666325488E-005   4.7955660680174553E-002
 chl2c          27   4.5333133499525620E-002   4.5333133499525620E-002  0.30964730000000001        1.8624563529802537E-005   2.6475186447300527E-017
 chl          27   3.7111264657902082E-006   8.1863444666339745E-005   4.5333133499525620E-002
 chl2c          28   3.1209236063453518E-002   3.1209236063453518E-002  0.28776342500000002        2.6337978635785614E-005   2.6316307670554742E-017
 chl          28   2.5548955695592588E-006   8.1863444666339651E-005   3.1209236063453518E-002
 chl2c          29  0.19750184640693824        3.7743217595736761E-002  0.68676297499999994        3.9865615472760761E-005   5.5259353340115531E-006
 chl          29   1.6686690386457525E-005   8.4488781700176155E-005  0.19750184640693824     
 chl2c          30   2.5380056985171612E-002   2.5380056985171612E-002  0.38930277499999999        2.1437483832847808E-005   2.8775763492730040E-016
 chl          30   2.0776988906380708E-006   8.1863444666494393E-005   2.5380056985171612E-002
 chl2c          31  0.12590151872204014        3.7576959810037038E-002  0.63559385000000002        3.9865615472760761E-005   3.1294717369344910E-006
 chl          31   1.0509138190071003E-005   8.3471099449345149E-005  0.12590151872204014     
 chl2c          32  0.13491033554310278        2.0893126428578448E-002  0.24722667500000001        3.9865615472760761E-005   5.9192418849782637E-006
 chl          32   1.1328914217837474E-005   8.3973656816070828E-005  0.13491033554310278     
 chl2c          33  0.19229839745008198        3.7458922634011876E-002  0.60343137499999999        3.9865615472760761E-005   5.6258703108950748E-006
 chl          33   1.6245787265742046E-005   8.4482177080852838E-005  0.19229839745008198     
 chl2c          34   4.4229888655362634E-002   2.5350269098008315E-002  0.38241020000000003        2.1437483832847808E-005   5.3609382928860668E-007
 chl          34   3.6324902122626078E-006   8.2127500717146573E-005   4.4229888655362634E-002
 chl2c          35   2.5740370148566064E-002   2.5740370148566064E-002  0.49574644999999995        2.1437483832847808E-005   2.3514803852690229E-016
 chl          35   2.1071953673514206E-006   8.1863444666463263E-005   2.5740370148566064E-002
 chl2c          36   3.7770393924465726E-002   3.7770393924465726E-002  0.69587337500000002        3.9865615472760761E-005   2.8430909297600182E-016
 chl          36   3.0965127129272113E-006   8.1982536881127123E-005   3.7770393924465726E-002
 chl2c          37   2.1353674699533250E-002   2.1353674699533250E-002  0.33194060000000003        3.9865615472760761E-005   2.2170774791942718E-016
 chl          37   1.7480853671907268E-006   8.1863444666455308E-005   2.1353674699533250E-002
 chl2c          38   2.1543295686358745E-002   2.1543295686358745E-002  0.38455722500000000        3.9865615472760761E-005   2.9119910521424337E-016
 chl          38   1.7636083943542003E-006   8.1863444666496426E-005   2.1543295686358745E-002
 chl2c          39   2.5670077108751441E-002   2.5670077108751441E-002  0.47091117500000002        2.1437483832847808E-005   2.5552010726730111E-016
 chl          39   2.1014409369764280E-006   8.1863444666475298E-005   2.5670077108751441E-002
 chl2c          40   3.7687445774703773E-002   3.7687445774703773E-002  0.66875547499999999        3.9865615472760761E-005   3.4817822427204729E-016
 chl          40   3.0897124131815639E-006   8.1982536881165151E-005   3.7687445774703773E-002
 chl2c          41   2.5582381488167241E-002   2.5582381488167241E-002  0.44304987499999998        2.1437483832847808E-005   2.0626864249797262E-016
 chl          41   2.0942618713925196E-006   8.1863444666447108E-005   2.5582381488167241E-002
 chl2c          42   3.7949995630725070E-002   3.7949995630725070E-002  0.76234377499999995        3.9865615472760761E-005   3.0765177330223393E-016
 chl          42   3.1112369160630312E-006   8.1982536871337929E-005   3.7949995630725070E-002
 chl2c          43   9.4769571827894999E-002   2.1185090152268007E-002  0.29539925000000000        3.9865615472760761E-005   2.7813241583043115E-006
 chl          43   7.8745326441030924E-006   8.3091360361989714E-005   9.4769571827894999E-002
 chl2c          44   3.7536352708156646E-002   3.7536352708156646E-002  0.62417262500000004        3.9865615472760761E-005   2.7301959671609277E-016
 chl          44   3.0773254199111929E-006   8.1982536871316489E-005   3.7536352708156646E-002
 chl2c          45   4.6544927192009838E-002   4.6544927192009838E-002  0.37662252499999999        1.8624563529802537E-005   3.1903780783938378E-018
 chl          45   3.8103280716812669E-006   8.1863444666325935E-005   4.6544927192009838E-002
 chl2c          46  0.16072823062759153        3.7083195475449568E-002  0.51876034999999998        3.9865615472760761E-005   4.6420031073299186E-006
 chl          46   1.3510093924022037E-005   8.4055513280209142E-005  0.16072823062759153     
 chl2c          47   3.7519784612651236E-002   3.7519784612651236E-002  0.61962282499999999        3.9865615472760761E-005   3.2800071008144217E-016
 chl          47   3.0759671254117545E-006   8.1982536871349042E-005   3.7519784612651236E-002
 chl2c          48   3.7823212136301673E-002   3.7823212136301673E-002  0.71424949999999998        3.9865615472760761E-005   3.1877749832933473E-016
 chl          48   3.1008428835570019E-006   8.1982536871343581E-005   3.7823212136301673E-002
 chl2c          49   3.7152990741888416E-002   3.7152990741888416E-002  0.53276120000000005        3.9865615472760761E-005   3.0222827325339105E-016
 chl          49   3.0458964333771901E-006   8.1982536871333796E-005   3.7152990741888416E-002
 chl2c          50  0.15130474215924120        2.1533072915600981E-002  0.38132569999999999        3.9865615472760761E-005   4.9997660835488349E-006
 chl          50   1.2702529215094759E-005   8.3953278884847765E-005  0.15130474215924120     
 chl2c          51   2.0700971146093840E-002   2.0700971146093840E-002  0.22275920000000002        3.9865615472760761E-005   3.0147203077740884E-016
 chl          51   1.6946528059611180E-006   8.1863444666502498E-005   2.0700971146093840E-002
 chl2c          52   3.7581825176985564E-002   3.7581825176985564E-002  0.63698869999999996        3.9865615472760761E-005   3.4305451987201935E-016
 chl          52   3.0810533686335979E-006   8.1982536881161899E-005   3.7581825176985564E-002
 chl2c          53   3.7925801262726190E-002   3.7925801262726190E-002  0.75269794999999995        3.9865615472760761E-005   3.1666542928753836E-016
 chl          53   3.1092534007704116E-006   8.1982536881197366E-005   3.7925801262726190E-002
 chl2c          54   3.7082433371327092E-002   3.7082433371327092E-002  0.51861124999999997        3.9865615472760761E-005   2.7268059129083994E-016
 chl          54   3.0401119611429525E-006   8.1982536871316272E-005   3.7082433371327092E-002
 chl2c          55  0.21600049231197793        3.7357235588660491E-002  0.57808280000000001        3.9865615472760761E-005   6.8739435606860730E-006
 chl          55   1.8342677279924277E-005   8.4919608671221136E-005  0.21600049231197793     
 chl2c          56   3.7507394187257688E-002   3.7507394187257688E-002  0.61626080000000005        3.9865615472760761E-005   3.4370168872497909E-016
 chl          56   3.0749513272731452E-006   8.1982536881162278E-005   3.7507394187257688E-002
 chl2c          57   7.6384752352185836E-002   3.7727617852646313E-002  0.68163462500000005        3.9865615472760761E-005   1.7147155612075397E-006
 chl          57   6.3268881781933688E-006   8.2829203255410145E-005   7.6384752352185836E-002
 chl2c          58  0.21840858589698608        3.7765358178394853E-002  0.69416802499999997        3.9865615472760761E-005   6.3520714781395053E-006
 chl          58   1.8524380102037343E-005   8.4815255892799443E-005  0.21840858589698608     
 chl2c          59   9.2722271564435257E-002   3.7173699120809672E-002  0.53705127500000005        3.9865615472760761E-005   2.2338994942722779E-006
 chl          59   7.7010613364217032E-006   8.3055140976243480E-005   9.2722271564435257E-002
 chl2c          60  0.17595034487261013        3.7607757740906807E-002  0.64452155000000000        3.9865615472760761E-005   4.8241460379667663E-006
 chl          60   1.4812827643023629E-005   8.4187545376783826E-005  0.17595034487261013     
 chl2c          61   3.7805373434125003E-002   3.7805373434125003E-002  0.70794139999999994        3.9865615472760761E-005   3.1167003477905878E-016
 chl          61   3.0993804214979079E-006   8.1982536871339393E-005   3.7805373434125003E-002
 chl2c          62   3.7956103087269030E-002   3.7956103087269030E-002  0.76481592499999995        3.9865615472760761E-005   2.6710926657400687E-016
 chl          62   3.1117376208433897E-006   8.1982536871312979E-005   3.7956103087269030E-002
 chl2c          63  0.19921603423396325        3.7855601011927406E-002  0.72597904999999996        3.9865615472760761E-005   5.4726992330931721E-006
 chl          63   1.6830651932881655E-005   8.4484424145876759E-005  0.19921603423396325     
 chl2c          64   2.5708982294816416E-002   2.5708982294816416E-002  0.48435739999999999        2.1437483832847808E-005   2.0233298138774587E-016
 chl          64   2.1046258495222883E-006   8.1863444666443856E-005   2.5708982294816416E-002
 chl2c          65   8.0042922351114681E-002   3.7953597170552002E-002  0.76379975000000000        3.9865615472760761E-005   1.7822525710526531E-006
 chl          65   6.6326100608629117E-006   8.2863167236304011E-005   8.0042922351114681E-002
 chl2c          66   3.1840477731474713E-002   3.1840477731474713E-002  0.35213202499999996        2.6337978635785614E-005   2.6261856838382366E-018
 chl          66   2.6065711869199532E-006   8.1863444666325624E-005   3.1840477731474713E-002
 chl2c          67   3.7937587124568600E-002   3.7937587124568600E-002  0.75736760000000003        3.9865615472760761E-005   3.0094029782752712E-016
 chl          67   3.1102196352493543E-006   8.1982536871333023E-005   3.7937587124568600E-002
 chl2c          68  0.22028642678144875        3.7855407263856986E-002  0.72590779999999999        3.9865615472760761E-005   6.3039426763373640E-006
 chl          68   1.8683510547819615E-005   8.4814624399695568E-005  0.22028642678144875     
 chl2c          69  0.13405860181250151        2.1732330561541505E-002  0.45524217500000003        3.9865615472760761E-005   3.7874972617790084E-006
 chl          69   1.1203146048141443E-005   8.3569020537827988E-005  0.13405860181250151     
 chl2c          70   3.2658010878182209E-002   3.2658010878182209E-002  0.48694062500000002        2.6337978635785614E-005   3.2274678524561833E-017
 chl          70   2.6734972664389019E-006   8.1863444666343147E-005   3.2658010878182209E-002
 chl2c          71   4.3481058864416305E-002   4.3481058864416305E-002  0.23986107500000001        1.8624563529802537E-005   2.9352872671742747E-018
 chl          71   3.5595092625194149E-006   8.1863444807514076E-005   4.3481058864416305E-002
 chl2c          72   3.7549776402781669E-002   3.7549776402781669E-002  0.62790522500000001        3.9865615472760761E-005   3.4447507594331669E-016
 chl          72   3.0784259288204620E-006   8.1982536881162725E-005   3.7549776402781669E-002
 chl2c          73   3.1852614277819484E-002   3.1852614277819484E-002  0.35362212500000001        2.6337978635785614E-005   3.2943892696356838E-018
 chl          73   2.6075647264101011E-006   8.1863444666326003E-005   3.1852614277819484E-002
 chl2c          74  0.19475962809606898        3.7616827685877569E-002  0.64719590000000005        3.9865615472760761E-005   5.5532312195970417E-006
 chl          74   1.6453082999920637E-005   8.4478919788267591E-005  0.19475962809606898     
 chl2c          75   3.7826830779512356E-002   3.7826830779512356E-002  0.71554212500000003        3.9865615472760761E-005   2.8914696176609142E-016
 chl          75   3.1011395494776347E-006   8.1982536881129982E-005   3.7826830779512356E-002
 chl2c          76  0.20058118728695354        3.7257729557919804E-002  0.55513977500000000        3.9865615472760761E-005   6.2599809508634772E-006
 chl          76   1.6985463081529639E-005   8.4681237115373422E-005  0.20058118728695354     
 chl2c          77  0.14203668290504073        3.7138172437479272E-002  0.52973029999999999        3.9865615472760761E-005   3.8684337441756362E-006
 chl          77   1.1896036321322688E-005   8.3753267663085580E-005  0.14203668290504073     
 chl2c          78   4.7515248899399322E-002   4.7515248899399322E-002  0.45117492500000000        1.8624563529802537E-005   5.5588653337056791E-008
 chl          78   3.8913234943935724E-006   8.1896308754109576E-005   4.7515248899399322E-002
 prod   1.1973346316899853E-008   28.597414589057763        10.000000000000000     
 chl2c           1  0.24574756373689258        3.7477407714772232E-002  0.60826437499999997        3.2102674618870436E-005   6.6185777112249217E-006
 chl           1   4.5929669766145236E-006   1.8689776235307636E-005  0.24574756373689258     
 chl2c           2   3.2640259920490348E-002   3.2640259920490348E-002  0.48302390000000001        2.1367580330010471E-005   3.3883552587770102E-009
 chl           2   5.8450529996281868E-007   1.7907495264640581E-005   3.2640259920490348E-002
 chl2c           3   3.7922212503796585E-002   3.7922212503796585E-002  0.75128689999999998        3.2102674618870436E-005   5.8248973623896144E-016
 chl           3   6.8584023121692111E-007   1.8085448762997629E-005   3.7922212503796585E-002
 chl2c           4  0.37311949583091286        3.7976509103863923E-002  0.77318742499999993        3.2102674618870436E-005   1.1574712354596268E-005
 chl           4   7.1156303689846878E-006   1.9070647469488674E-005  0.37311949583091286     
 chl2c           5  0.12162328471031413        2.5710500362372445E-002  0.48489679999999996        1.7399838614224905E-005   1.4123669112896780E-006
 chl           5   2.1952567988414867E-006   1.8049642418967824E-005  0.12162328471031413     
 chl2c           6   3.1261039902252048E-002   3.1261039902252048E-002  0.29222855000000003        2.1367580330010471E-005   1.7225089736359303E-017
 chl           6   5.5979444239802934E-007   1.7907095993876446E-005   3.1261039902252048E-002
 chl2c           7   4.3064391842467263E-002   4.3064391842467263E-002  0.22770740000000000        1.5223373832143829E-005   2.0342509799988811E-008
 chl           7   7.7126086774892563E-007   1.7909480077421156E-005   4.3064391842467263E-002
 chl2c           8   4.7969800906495587E-002   4.7969800906495587E-002  0.49578364999999996        1.5223373832143829E-005   1.8945417594105725E-008
 chl           8   8.5910626741286401E-007   1.7909314843467121E-005   4.7969800906495587E-002
 chl2c           9  0.21650038516533227        2.4803669054600401E-002  0.28700202499999999        1.7399838614224905E-005   7.6676033812170195E-006
 chl           9   3.9612094593731807E-006   1.8296546938464664E-005  0.21650038516533227     
 chl2c          10  0.20351816913562562        2.5387016219684602E-002  0.39094662499999999        1.7399838614224905E-005   3.6931789585622242E-006
 chl          10   3.7048564956918253E-006   1.8204057708591554E-005  0.20351816913562562     
 chl2c          11   2.1820572217820047E-002   2.1820572217820047E-002  0.49737575000000001        3.2102674618870436E-005   3.9911560779590061E-016
 chl          11   3.9074308134689580E-007   1.7907095993925885E-005   2.1820572217820047E-002
 chl2c          12   4.5290941298723353E-002   4.5290941298723353E-002  0.30768942500000002        1.5223373832143829E-005   1.1052757798738315E-018
 chl          12   8.1102923348916788E-007   1.7907095993874362E-005   4.5290941298723353E-002
 chl2c          13   3.7935816987997487E-002   3.7935816987997487E-002  0.75666275000000005        3.2102674618870436E-005   5.3514600749360920E-016
 chl          13   6.8608627433583751E-007   1.8085448760808509E-005   3.7935816987997487E-002
 chl2c          14   4.6856526101924839E-002   4.6856526101924839E-002  0.39804095000000000        1.5223373832143829E-005   1.3201092552936598E-017
 chl          14   8.3906431084672109E-007   1.7907095993875927E-005   4.6856526101924839E-002
 chl2c          15  0.14196159079840129        2.0954299823745293E-002  0.25607262500000000        3.2102674618870436E-005   5.1134921152225458E-006
 chl          15   2.5980323076387348E-006   1.8300952342300693E-005  0.14196159079840129     
 chl2c          16   3.7823443882273475E-002   3.7823443882273475E-002  0.71433214999999994        3.2102674618870436E-005   5.9269678408554764E-016
 chl          16   6.8405395642054571E-007   1.8085448764255385E-005   3.7823443882273475E-002
 chl2c          17   3.7542254757581245E-002   3.7542254757581245E-002  0.62580860000000005        3.2102674618870436E-005   5.9257006389679910E-016
 chl          17   6.7896852486568868E-007   1.8085448762998937E-005   3.7542254757581245E-002
 chl2c          18   2.5694475239060960E-002   2.5694475239060960E-002  0.47925950000000000        1.7399838614224905E-005   4.0465499353930735E-016
 chl          18   4.6011343461943480E-007   1.7907095993926603E-005   2.5694475239060960E-002
 chl2c          19  0.31159817923649907        3.7570220750293731E-002  0.63367130000000005        3.2102674618870436E-005   9.8404665360845117E-006
 chl          19   5.8931393444436216E-006   1.8912624453979249E-005  0.31159817923649907     
 chl2c          20   3.7020645196759419E-002   3.7020645196759419E-002  0.50678202500000002        3.2102674618870436E-005   5.5996826066620568E-016
 chl          20   6.6953498179818366E-007   1.8085448760811738E-005   3.7020645196759419E-002
 chl2c          21  0.33385342050469902        3.7838475073783531E-002  0.71973185000000006        3.2102674618870436E-005   9.9951029314053950E-006
 chl          21   6.3270571990795239E-006   1.8951602141786263E-005  0.33385342050469902     
 chl2c          22  0.33799438289162614        3.7613353106285476E-002  0.64616892500000001        3.2102674618870436E-005   1.1375487386132392E-005
 chl          22   6.4246863752973144E-006   1.9008263747854392E-005  0.33799438289162614     
 chl2c          23   3.2286562315070731E-002   3.2286562315070731E-002  0.41564179999999995        2.1367580330010471E-005   1.5356059929933456E-018
 chl          23   5.7815857068825777E-007   1.7907095993876832E-005   3.2286562315070731E-002
 chl2c          24   3.7348402796863071E-002   3.7348402796863071E-002  0.57597492500000003        3.2102674618870436E-005   5.0615798007178219E-016
 chl          24   6.7546262508056361E-007   1.8085448760804742E-005   3.7348402796863071E-002
 chl2c          25   4.5426679235459781E-002   4.5426679235459781E-002  0.31406487500000002        1.5223373832143829E-005   1.1703443218136035E-018
 chl          25   8.1345990575234732E-007   1.7907095993875019E-005   4.5426679235459781E-002
 chl2c          26   4.7955660680174553E-002   4.7955660680174553E-002  0.49427735000000000        1.5223373832143829E-005   1.0623356187397062E-018
 chl          26   8.5874661924955163E-007   1.7907095993874355E-005   4.7955660680174553E-002
 chl2c          27   4.5333133499525620E-002   4.5333133499525620E-002  0.30964730000000001        1.5223373832143829E-005   1.3088514349456446E-017
 chl          27   8.1178477327919724E-007   1.7907095993875914E-005   4.5333133499525620E-002
 chl2c          28   3.1209236063453518E-002   3.1209236063453518E-002  0.28776342500000002        2.1367580330010471E-005   1.3008368320901742E-017
 chl          28   5.5886678608379587E-007   1.7907095993875903E-005   3.1209236063453518E-002
 chl2c          29  0.28869671123641755        3.7743217595736761E-002  0.68676297499999994        3.2102674618870436E-005   7.9947439411332484E-006
 chl          29   5.4295548298120886E-006   1.8807123941795634E-005  0.28869671123641755     
 chl2c          30   2.5380056985171612E-002   2.5380056985171612E-002  0.38930277499999999        1.7399838614224905E-005   4.1622302201288168E-016
 chl          30   4.5448311676483343E-007   1.7907095993928098E-005   2.5380056985171612E-002
 chl2c          31  0.13376659568083982        3.7576959810037038E-002  0.63559385000000002        3.2102674618870436E-005   2.7194704114247615E-006
 chl          31   2.4570090275481648E-006   1.8367881869480041E-005  0.13376659568083982     
 chl2c          32  0.16541734244285641        2.0893126428578448E-002  0.24722667500000001        3.2102674618870436E-005   8.0238858019725870E-006
 chl          32   3.0462586578339812E-006   1.8415594234844598E-005  0.16541734244285641     
 chl2c          33  0.30771504463424887        3.7458922634011876E-002  0.60343137499999999        3.2102674618870436E-005   1.0078885937726130E-005
 chl          33   5.8204512526822370E-006   1.8915068841045600E-005  0.30771504463424887     
 chl2c          34   2.5350269098008315E-002   2.5350269098008315E-002  0.38241020000000003        1.7399838614224905E-005   3.6488920730901356E-016
 chl          34   4.5395130816161785E-007   1.7907159344406457E-005   2.5350269098008315E-002
 chl2c          35   2.5740370148566064E-002   2.5740370148566064E-002  0.49574644999999995        1.7399838614224905E-005   3.7353664172726693E-016
 chl          35   4.6093527916947152E-007   1.7907095993922572E-005   2.5740370148566064E-002
 chl2c          36   3.7770393924465726E-002   3.7770393924465726E-002  0.69587337500000002        3.2102674618870436E-005   5.2259126318567795E-016
 chl          36   6.8309452407886757E-007   1.8085448762989839E-005   3.7770393924465726E-002
 chl2c          37   2.1353674699533250E-002   2.1353674699533250E-002  0.33194060000000003        3.2102674618870436E-005   3.6125517593412570E-016
 chl          37   3.8238230266750373E-007   1.7907095993920983E-005   2.1353674699533250E-002
 chl2c          38   2.1543295686358745E-002   2.1543295686358745E-002  0.38455722500000000        3.2102674618870436E-005   4.1875171652449080E-016
 chl          38   3.8577786388121023E-007   1.7907095993928426E-005   2.1543295686358745E-002
 chl2c          39   2.5670077108751441E-002   2.5670077108751441E-002  0.47091117500000002        1.7399838614224905E-005   3.9102193126827390E-016
 chl          39   4.5967653495786453E-007   1.7907095993924835E-005   2.5670077108751441E-002
 chl2c          40   3.7687445774703773E-002   3.7687445774703773E-002  0.66875547499999999        3.2102674618870436E-005   5.9318537347361925E-016
 chl          40   6.8159436961233925E-007   1.8085448764209774E-005   3.7687445774703773E-002
 chl2c          41   2.5582381488167241E-002   2.5582381488167241E-002  0.44304987499999998        1.7399838614224905E-005   3.4634408072678483E-016
 chl          41   4.5810616118029193E-007   1.7907095998555971E-005   2.5582381488167241E-002
 chl2c          42   3.7949995630725070E-002   3.7949995630725070E-002  0.76234377499999995        3.2102674618870436E-005   5.4964629808143451E-016
 chl          42   6.8634270162482920E-007   1.8085448765352492E-005   3.7949995630725070E-002
 chl2c          43  0.16520389722652981        2.1185090152268007E-002  0.29539925000000000        3.2102674618870436E-005   6.0165206995967590E-006
 chl          43   3.0343851522072288E-006   1.8367515555922019E-005  0.16520389722652981     
 chl2c          44   3.7536352708156646E-002   3.7536352708156646E-002  0.62417262500000004        3.2102674618870436E-005   5.0893888419353817E-016
 chl          44   6.7886178357087494E-007   1.8085448760805104E-005   3.7536352708156646E-002
 chl2c          45   4.6544927192009838E-002   4.6544927192009838E-002  0.37662252499999999        1.5223373832143829E-005   1.4141631532963250E-018
 chl          45   8.3348447925521480E-007   1.7907095993874396E-005   4.6544927192009838E-002
 chl2c          46  0.20639300338602989        3.7083195475449568E-002  0.51876034999999998        3.2102674618870436E-005   5.5018321680312337E-006
 chl          46   3.8370192256054799E-006   1.8590839624678848E-005  0.20639300338602989     
 chl2c          47   3.7519784612651236E-002   3.7519784612651236E-002  0.61962282499999999        3.2102674618870436E-005   5.7202447131417922E-016
 chl          47   6.7856214212885547E-007   1.8085448760813307E-005   3.7519784612651236E-002
 chl2c          48   3.7823212136301673E-002   3.7823212136301673E-002  0.71424949999999998        3.2102674618870436E-005   5.6201510858862361E-016
 chl          48   6.8404976506042430E-007   1.8085448760812470E-005   3.7823212136301673E-002
 chl2c          49   3.7152990741888416E-002   3.7152990741888416E-002  0.53276120000000005        3.2102674618870436E-005   5.4349631550502651E-016
 chl          49   6.7192851037325614E-007   1.8085448760809594E-005   3.7152990741888416E-002
 chl2c          50  0.20945948974177775        2.1533072915600981E-002  0.38132569999999999        3.2102674618870436E-005   7.4596222906315502E-006
 chl          50   3.8722742809570677E-006   1.8486984216999755E-005  0.20945948974177775     
 chl2c          51   2.0700971146093840E-002   2.0700971146093840E-002  0.22275920000000002        3.2102674618870436E-005   4.2612887367975829E-016
 chl          51   3.7069427748066472E-007   1.7907095993929382E-005   2.0700971146093840E-002
 chl2c          52   3.7581825176985564E-002   3.7581825176985564E-002  0.63698869999999996        3.2102674618870436E-005   5.8790502523828257E-016
 chl          52   6.7968417365834122E-007   1.8085448762998547E-005   3.7581825176985564E-002
 chl2c          53   3.7925801262726190E-002   3.7925801262726190E-002  0.75269794999999995        3.2102674618870436E-005   5.5969217813276430E-016
 chl          53   6.8590514463293552E-007   1.8085449002946948E-005   3.7925801262726190E-002
 chl2c          54   3.7082433371327092E-002   3.7082433371327092E-002  0.51861124999999997        3.2102674618870436E-005   5.0852295267848874E-016
 chl          54   6.7065244866310342E-007   1.8085448760805050E-005   3.7082433371327092E-002
 chl2c          55  0.31755240688493364        3.7357235588660491E-002  0.57808280000000001        3.2102674618870436E-005   1.1309887450394604E-005
 chl          55   6.0245348031856643E-006   1.8971781263710208E-005  0.31755240688493364     
 chl2c          56   3.7507394187257688E-002   3.7507394187257688E-002  0.61626080000000005        3.2102674618870436E-005   5.8857541194015905E-016
 chl          56   6.7833805580723374E-007   1.8085448762998422E-005   3.7507394187257688E-002
 chl2c          57   3.7727617852646313E-002   3.7727617852646313E-002  0.68163462500000005        3.2102674618870436E-005   5.8950175998008039E-007
 chl          57   6.8487376940779536E-007   1.8153114572001968E-005   3.7727617852646313E-002
 chl2c          58  0.34559838446486069        3.7765358178394853E-002  0.69416802499999997        3.2102674618870436E-005   1.1047346390502917E-005
 chl          58   6.5694480599587855E-006   1.9008908476615711E-005  0.34559838446486069     
 chl2c          59  0.22451355882580243        3.7173699120809672E-002  0.53705127500000005        3.2102674618870436E-005   6.1925156527487882E-006
 chl          59   4.1857223863134828E-006   1.8643517158627992E-005  0.22451355882580243     
 chl2c          60  0.30631367165969947        3.7607757740906807E-002  0.64452155000000000        3.2102674618870436E-005   9.3698216674223692E-006
 chl          60   5.7853550452761353E-006   1.8887028495755164E-005  0.30631367165969947     
 chl2c          61   3.7805373434125003E-002   3.7805373434125003E-002  0.70794139999999994        3.2102674618870436E-005   5.5415143537475802E-016
 chl          61   6.8372714412619236E-007   1.8085448760810979E-005   3.7805373434125003E-002
 chl2c          62   3.7956103087269030E-002   3.7956103087269030E-002  0.76481592499999995        3.2102674618870436E-005   5.0163642652354280E-016
 chl          62   6.8645315754462411E-007   1.8085448760804674E-005   3.7956103087269030E-002
 chl2c          63  0.33235549321968438        3.7855601011927406E-002  0.72597904999999996        3.2102674618870436E-005   9.8391388508829908E-006
 chl          63   6.2959438389999962E-006   1.8943402373188477E-005  0.33235549321968438     
 chl2c          64   2.5708982294816416E-002   2.5708982294816416E-002  0.48435739999999999        1.7399838614224905E-005   3.4239665570370817E-016
 chl          64   4.6037321385922979E-007   1.7907095993918543E-005   2.5708982294816416E-002
 chl2c          65  0.23323583388773469        3.7953597170552002E-002  0.76379975000000000        3.2102674618870436E-005   5.3894977931887754E-006
 chl          65   4.3416714743227686E-006   1.8614941803550568E-005  0.23323583388773469     
 chl2c          66   3.1840477731474713E-002   3.1840477731474713E-002  0.35213202499999996        2.1367580330010471E-005   1.1634129980234059E-018
 chl          66   5.7017049122833685E-007   1.7907095993874369E-005   3.1840477731474713E-002
 chl2c          67   3.7937587124568600E-002   3.7937587124568600E-002  0.75736760000000003        3.2102674618870436E-005   5.4202395715835120E-016
 chl          67   6.8611828805012798E-007   1.8085448760809404E-005   3.7937587124568600E-002
 chl2c          68  0.35379015376487771        3.7855407263856986E-002  0.72590779999999999        3.2102674618870436E-005   1.1077918380729665E-005
 chl          68   6.7300142456347240E-006   1.9022616016915397E-005  0.35379015376487771     
 chl2c          69  0.16264178007316080        2.1732330561541505E-002  0.45524217500000003        3.2102674618870436E-005   4.0617287948099512E-006
 chl          69   2.9747469631598896E-006   1.8290177110836870E-005  0.16264178007316080     
 chl2c          70   3.2658010878182209E-002   3.2658010878182209E-002  0.48694062500000002        2.1367580330010471E-005   1.6027530690986335E-017
 chl          70   5.8481013576466494E-007   1.7907095993876290E-005   3.2658010878182209E-002
 chl2c          71   4.3481058864416305E-002   4.3481058864416305E-002  0.23986107500000001        1.5223373832143829E-005   5.0979819138617409E-009
 chl          71   7.7864539639150549E-007   1.7907691687534485E-005   4.3481058864416305E-002
 chl2c          72   3.7549776402781669E-002   3.7549776402781669E-002  0.62790522500000001        3.2102674618870436E-005   5.8937523802998663E-016
 chl          72   6.7910455719455891E-007   1.8085448762998523E-005   3.7549776402781669E-002
 chl2c          73   3.1852614277819484E-002   3.1852614277819484E-002  0.35362212500000001        2.1367580330010471E-005   1.4604213644710106E-018
 chl          73   5.7038782152876789E-007   1.7907095993874402E-005   3.1852614277819484E-002
 chl2c          74  0.32186132016445956        3.7616827685877569E-002  0.64719590000000005        3.2102674618870436E-005   1.0277453960925742E-005
 chl          74   6.0974157379525344E-006   1.8944232673988207E-005  0.32186132016445956     
 chl2c          75   3.7826830779512356E-002   3.7826830779512356E-002  0.71554212500000003        3.2102674618870436E-005   5.2832588154555039E-016
 chl          75   6.8411520992918588E-007   1.8085448762990585E-005   3.7826830779512356E-002
 chl2c          76  0.29805049570507036        3.7257729557919804E-002  0.55513977500000000        3.2102674618870436E-005   1.0330454946731342E-005
 chl          76   5.6354759332296378E-006   1.8907789164712897E-005  0.29805049570507036     
 chl2c          77  0.26243944667157504        3.7138172437479272E-002  0.52973029999999999        3.2102674618870436E-005   8.3485499905062683E-006
 chl          77   4.9293512228831818E-006   1.8782813656256206E-005  0.26243944667157504     
 chl2c          78   4.7515248899399322E-002   4.7515248899399322E-002  0.45117492500000000        1.5223373832143829E-005   1.6534769231315105E-017
 chl          78   8.5086049768553345E-007   1.7907103874947604E-005   4.7515248899399322E-002
 prod   5.2901429522874280E-009   22.950026607966169        10.000000000000000     
 chl2c           1  0.32787614700942169        3.7477407714772232E-002  0.60826437499999997        2.5900735561133825E-005   9.2113764307433407E-006
 chl           1   4.6401194262283633E-006   1.4152049389841789E-005  0.32787614700942169     
 chl2c           2   3.2640259920490348E-002   3.2640259920490348E-002  0.48302390000000001        1.7352279234725470E-005   8.9172345668955869E-019
 chl           2   4.4350406429558580E-007   1.3587638866109958E-005   3.2640259920490348E-002
 chl2c           3   3.7922212503796585E-002   3.7922212503796585E-002  0.75128689999999998        2.5900735561133825E-005   6.1866894380118953E-016
 chl           3   5.1573463706656330E-007   1.3599803466502132E-005   3.7922212503796585E-002
 chl2c           4  0.41272226957606190        3.7976509103863923E-002  0.77318742499999993        2.5900735561133825E-005   1.1464668394550399E-005
 chl           4   5.8993630537172475E-006   1.4293784194821684E-005  0.41272226957606190     
 chl2c           5   2.5710500362372445E-002   2.5710500362372445E-002  0.48489679999999996        1.4153368566382864E-005   4.3547163413630061E-016
 chl           5   3.4934587032177706E-007   1.3587672950661356E-005   2.5710500362372445E-002
 chl2c           6   3.1261039902252048E-002   3.1261039902252048E-002  0.29222855000000003        1.7352279234725470E-005   1.4318370461216099E-017
 chl           6   4.2476371781445223E-007   1.3587638771538506E-005   3.1261039902252048E-002
 chl2c           7   4.3064391842467263E-002   4.3064391842467263E-002  0.22770740000000000        1.2451391789699702E-005   1.5064730854860464E-008
 chl           7   5.8520096544178521E-007   1.3588975494707871E-005   4.3064391842467263E-002
 chl2c           8   4.7969800906495587E-002   4.7969800906495587E-002  0.49578364999999996        1.2451391789699702E-005   1.6698417630607085E-008
 chl           8   6.5186740061633004E-007   1.3589120411130594E-005   4.7969800906495587E-002
 chl2c           9  0.23125155962855379        2.4803669054600401E-002  0.28700202499999999        1.4153368566382864E-005   8.4246323041494395E-006
 chl           9   3.2044643857222678E-006   1.3857049832958604E-005  0.23125155962855379     
 chl2c          10  0.11174949300977552        2.5387016219684602E-002  0.39094662499999999        1.4153368566382864E-005   1.1073423190479222E-006
 chl          10   1.5276827051783538E-006   1.3670600769926685E-005  0.11174949300977552     
 chl2c          11   2.1820572217820047E-002   2.1820572217820047E-002  0.49737575000000001        2.5900735561133825E-005   4.5788962381051165E-016
 chl          11   2.9649005308482814E-007   1.3587638771576107E-005   2.1820572217820047E-002
 chl2c          12   4.5290941298723353E-002   4.5290941298723353E-002  0.30768942500000002        1.2451391789699702E-005   9.1547315838737175E-019
 chl          12   6.1539694998967744E-007   1.3587638771531208E-005   4.5290941298723353E-002
 chl2c          13   3.7935816987997487E-002   3.7935816987997487E-002  0.75666275000000005        2.5900735561133825E-005   6.7487037083743935E-016
 chl          13   5.1591965533060495E-007   1.3599803465253873E-005   3.7935816987997487E-002
 chl2c          14   4.6856526101924839E-002   4.6856526101924839E-002  0.39804095000000000        1.2451391789699702E-005   1.0961772361004316E-017
 chl          14   6.3666955076182424E-007   1.3587638771532195E-005   4.6856526101924839E-002
 chl2c          15  0.10939863011889611        2.0954299823745293E-002  0.25607262500000000        2.5900735561133825E-005   2.4734550292631680E-006
 chl          15   1.5046914908468011E-006   1.3754207792286606E-005  0.10939863011889611     
 chl2c          16   3.7823443882273475E-002   3.7823443882273475E-002  0.71433214999999994        2.5900735561133825E-005   6.1866894380118953E-016
 chl          16   5.1439162611363382E-007   1.3599809359366961E-005   3.7823443882273475E-002
 chl2c          17   3.7542254757581245E-002   3.7542254757581245E-002  0.62580860000000005        2.5900735561133825E-005   6.1866894380118953E-016
 chl          17   5.1056728639245964E-007   1.3599803466502133E-005   3.7542254757581245E-002
 chl2c          18   2.5694475239060960E-002   2.5694475239060960E-002  0.47925950000000000        1.4153368566382864E-005   4.6177473296757338E-016
 chl          18   3.4912724797357678E-007   1.3587638771576488E-005   2.5694475239060960E-002
 chl2c          19  0.36928174006451514        3.7570220750293731E-002  0.63367130000000005        2.5900735561133825E-005   1.1461980663599055E-005
 chl          19   5.2611402990998746E-006   1.4246954908143388E-005  0.36928174006451514     
 chl2c          20   3.7020645196759419E-002   3.7020645196759419E-002  0.50678202500000002        2.5900735561133825E-005   6.9567231418707400E-016
 chl          20   5.0347349883289674E-007   1.3599803465255868E-005   3.7020645196759419E-002
 chl2c          21  0.41189754488960639        3.7838475073783531E-002  0.71973185000000006        2.5900735561133825E-005   1.2471681498003244E-005
 chl          21   5.8966951444254528E-006   1.4315926903632892E-005  0.41189754488960639     
 chl2c          22  0.37108261423302280        3.7613353106285476E-002  0.64616892500000001        2.5900735561133825E-005   1.1288332657675416E-005
 chl          22   5.2862173231355589E-006   1.4245392051205228E-005  0.37108261423302280     
 chl2c          23   3.2286562315070731E-002   3.2286562315070731E-002  0.41564179999999995        1.7352279234725470E-005   1.2720761548551923E-018
 chl          23   4.3869814627985410E-007   1.3587638782933494E-005   3.2286562315070731E-002
 chl2c          24   3.7348402796863071E-002   3.7348402796863071E-002  0.57597492500000003        2.5900735561133825E-005   6.4977048344001042E-016
 chl          24   5.0793093777838191E-007   1.3599803465251359E-005   3.7348402796863071E-002
 chl2c          25   4.5426679235459781E-002   4.5426679235459781E-002  0.31406487500000002        1.2451391789699702E-005   9.6938754838237752E-019
 chl          25   6.1724130818065108E-007   1.3587638774591218E-005   4.5426679235459781E-002
 chl2c          26   4.7955660680174553E-002   4.7955660680174553E-002  0.49427735000000000        1.2451391789699702E-005   8.7989506704583797E-019
 chl          26   6.5160419437233430E-007   1.3587638771531206E-005   4.7955660680174553E-002
 chl2c          27   4.5333133499525620E-002   4.5333133499525620E-002  0.30964730000000001        1.2451391789699702E-005   1.0867967945967779E-017
 chl          27   6.1597024237319886E-007   1.3587638771532185E-005   4.5333133499525620E-002
 chl2c          28   3.1209236063453518E-002   3.1209236063453518E-002  0.28776342500000002        1.7352279234725470E-005   1.0801190633019815E-017
 chl          28   4.2405982596568130E-007   1.3587638771532178E-005   3.1209236063453518E-002
 chl2c          29  0.29133527706095153        3.7743217595736761E-002  0.68676297499999994        2.5900735561133825E-005   6.5526197205896096E-006
 chl          29   4.0917452271769452E-006   1.4044798379569026E-005  0.29133527706095153     
 chl2c          30   2.5380056985171612E-002   2.5380056985171612E-002  0.38930277499999999        1.4153368566382864E-005   4.6975905224123305E-016
 chl          30   3.4485504631655835E-007   1.3587638771577271E-005   2.5380056985171612E-002
 chl2c          31   3.7576959810037038E-002   3.7576959810037038E-002  0.63559385000000002        2.5900735561133825E-005   2.8161753241597152E-007
 chl          31   5.1205649758803070E-007   1.3626874025377040E-005   3.7576959810037038E-002
 chl2c          32  0.17548386469647625        2.0893126428578448E-002  0.24722667500000001        2.5900735561133825E-005   7.8313428190110363E-006
 chl          32   2.4445151736955635E-006   1.3930142112630653E-005  0.17548386469647625     
 chl2c          33  0.36814327855544871        3.7458922634011876E-002  0.60343137499999999        2.5900735561133825E-005   1.2227196987349758E-005
 chl          33   5.2500023876061046E-006   1.4260758496546513E-005  0.36814327855544871     
 chl2c          34   2.5350269098008315E-002   2.5350269098008315E-002  0.38241020000000003        1.4153368566382864E-005   4.3294491513628508E-016
 chl          34   3.4445029960840949E-007   1.3587638785083814E-005   2.5350269098008315E-002
 chl2c          35   2.5740370148566064E-002   2.5740370148566064E-002  0.49574644999999995        1.4153368566382864E-005   4.3940520908464653E-016
 chl          35   3.4975085142532969E-007   1.3587638771574289E-005   2.5740370148566064E-002
 chl2c          36   3.7770393924465726E-002   3.7770393924465726E-002  0.69587337500000002        2.5900735561133825E-005   6.1866894380118953E-016
 chl          36   5.1366993422509969E-007   1.3599803466502123E-005   3.7770393924465726E-002
 chl2c          37   2.1353674699533250E-002   2.1353674699533250E-002  0.33194060000000003        2.5900735561133825E-005   4.3019684561435925E-016
 chl          37   2.9014601826294364E-007   1.3587638771573385E-005   2.1353674699533250E-002
 chl2c          38   2.1543295686358745E-002   2.1543295686358745E-002  0.38455722500000000        2.5900735561133825E-005   4.7148164752668985E-016
 chl          38   2.9272251973552511E-007   1.3587638771577440E-005   2.1543295686358745E-002
 chl2c          39   2.5670077108751441E-002   2.5670077108751441E-002  0.47091117500000002        1.4153368566382864E-005   4.5213902135890576E-016
 chl          39   3.4879573499220490E-007   1.3587638771575543E-005   2.5670077108751441E-002
 chl2c          40   3.7687445774703773E-002   3.7687445774703773E-002  0.66875547499999999        2.5900735561133825E-005   6.1866894380118953E-016
 chl          40   5.1254206960508391E-007   1.3599809142521082E-005   3.7687445774703773E-002
 chl2c          41   2.5582381488167241E-002   2.5582381488167241E-002  0.44304987499999998        1.4153368566382864E-005   4.1870947110887308E-016
 chl          41   3.4760471483368552E-007   1.3587660515283341E-005   2.5582381488167241E-002
 chl2c          42   3.7949995630725070E-002   3.7949995630725070E-002  0.76234377499999995        2.5900735561133825E-005   6.8709749236923893E-016
 chl          42   5.1611329073294497E-007   1.3599824773499825E-005   3.7949995630725070E-002
 chl2c          43  0.20037507810474048        2.1185090152268007E-002  0.29539925000000000        2.5900735561133825E-005   8.0667965084314752E-006
 chl          43   2.7988216992511739E-006   1.3967913204196822E-005  0.20037507810474048     
 chl2c          44   3.7536352708156646E-002   3.7536352708156646E-002  0.62417262500000004        2.5900735561133825E-005   6.5221729465293647E-016
 chl          44   5.1048701963329504E-007   1.3599803465251599E-005   3.7536352708156646E-002
 chl2c          45   4.6544927192009838E-002   4.6544927192009838E-002  0.37662252499999999        1.2451391789699702E-005   1.1714300558016473E-018
 chl          45   6.3243565733225104E-007   1.3587638771531230E-005   4.6544927192009838E-002
 chl2c          46  0.16011495735294209        3.7083195475449568E-002  0.51876034999999998        2.5900735561133825E-005   2.9992697325348337E-006
 chl          46   2.2131042738199738E-006   1.3821970853988479E-005  0.16011495735294209     
 chl2c          47   3.7519784612651236E-002   3.7519784612651236E-002  0.61962282499999999        2.5900735561133825E-005   7.0555504673116825E-016
 chl          47   5.1026169679082445E-007   1.3599803465256839E-005   3.7519784612651236E-002
 chl2c          48   3.7823212136301673E-002   3.7823212136301673E-002  0.71424949999999998        2.5900735561133825E-005   6.9736016645748928E-016
 chl          48   5.1438825156635508E-007   1.3599803467581734E-005   3.7823212136301673E-002
 chl2c          49   3.7152990741888416E-002   3.7152990741888416E-002  0.53276120000000005        2.5900735561133825E-005   6.8193774314096537E-016
 chl          49   5.0527337223610316E-007   1.3599803465254520E-005   3.7152990741888416E-002
 chl2c          50  0.23790684111500937        2.1533072915600981E-002  0.38132569999999999        2.5900735561133825E-005   8.1917906748577927E-006
 chl          50   3.3349943229566498E-006   1.4018068195628056E-005  0.23790684111500937     
 chl2c          51   2.0700971146093840E-002   2.0700971146093840E-002  0.22275920000000002        2.5900735561133825E-005   4.7646169868581083E-016
 chl          51   2.8127731815398064E-007   1.3587638771577928E-005   2.0700971146093840E-002
 chl2c          52   3.7581825176985564E-002   3.7581825176985564E-002  0.63698869999999996        2.5900735561133825E-005   6.1866894380118953E-016
 chl          52   5.1110543635910077E-007   1.3599803467557308E-005   3.7581825176985564E-002
 chl2c          53   3.7925801262726190E-002   3.7925801262726190E-002  0.75269794999999995        2.5900735561133825E-005   9.9307125876202122E-009
 chl          53   5.1582151080976360E-007   1.3600807198151868E-005   3.7925801262726190E-002
 chl2c          54   3.7082433371327092E-002   3.7082433371327092E-002  0.51861124999999997        2.5900735561133825E-005   6.5185186632329680E-016
 chl          54   5.0431380586333439E-007   1.3599803465251562E-005   3.7082433371327092E-002
 chl2c          55  0.36556596134670621        3.7357235588660491E-002  0.57808280000000001        2.5900735561133825E-005   1.2877885340689391E-005
 chl          55   5.2163874010396488E-006   1.4269346582004056E-005  0.36556596134670621     
 chl2c          56   3.7507394187257688E-002   3.7507394187257688E-002  0.61626080000000005        2.5900735561133825E-005   6.1866894380118953E-016
 chl          56   5.1009318948732904E-007   1.3599803466502133E-005   3.7507394187257688E-002
 chl2c          57   3.7727617852646313E-002   3.7727617852646313E-002  0.68163462500000005        2.5900735561133825E-005   7.1671879283001519E-016
 chl          57   5.1309056086839921E-007   1.3599866359768317E-005   3.7727617852646313E-002
 chl2c          58  0.38867672680402693        3.7765358178394853E-002  0.69416802499999997        2.5900735561133825E-005   1.1437639396328898E-005
 chl          58   5.5455906683451180E-006   1.4267874266475537E-005  0.38867672680402693     
 chl2c          59  0.31822534489236182        3.7173699120809672E-002  0.53705127500000005        2.5900735561133825E-005   1.0114253558644309E-005
 chl          59   4.5064758207390938E-006   1.4161272485267907E-005  0.31822534489236182     
 chl2c          60  0.37831591457482228        3.7607757740906807E-002  0.64452155000000000        2.5900735561133825E-005   1.1861972453712993E-005
 chl          60   5.3968322551220578E-006   1.4265411649910084E-005  0.37831591457482228     
 chl2c          61   3.7805373434125003E-002   3.7805373434125003E-002  0.70794139999999994        2.5900735561133825E-005   6.9085311020242970E-016
 chl          61   5.1414564863468748E-007   1.3599803465255394E-005   3.7805373434125003E-002
 chl2c          62   3.7956103087269030E-002   3.7956103087269030E-002  0.76481592499999995        2.5900735561133825E-005   6.4577414217452120E-016
 chl          62   5.1619554239205243E-007   1.3599803467843124E-005   3.7956103087269030E-002
 chl2c          63  0.39887682988303819        3.7855601011927406E-002  0.72597904999999996        2.5900735561133825E-005   1.1464668672674840E-005
 chl          63   5.6956804845073112E-006   1.4279296408812324E-005  0.39887682988303819     
 chl2c          64   2.5708982294816416E-002   2.5708982294816416E-002  0.48435739999999999        1.4153368566382864E-005   4.1561008815789002E-016
 chl          64   3.4932436460670440E-007   1.3587638771571953E-005   2.5708982294816416E-002
 chl2c          65  0.35441740062086119        3.7953597170552002E-002  0.76379975000000000        2.5900735561133825E-005   8.5634257430183009E-006
 chl          65   5.0185846563926471E-006   1.4160096675843773E-005  0.35441740062086119     
 chl2c          66   3.1840477731474713E-002   3.1840477731474713E-002  0.35213202499999996        1.7352279234725470E-005   9.6364429879005088E-019
 chl          66   4.3263690972826199E-007   1.3587638771531213E-005   3.1840477731474713E-002
 chl2c          67   3.7937587124568600E-002   3.7937587124568600E-002  0.75736760000000003        2.5900735561133825E-005   6.8069677154690357E-016
 chl          67   5.1594372884009863E-007   1.3599803465254398E-005   3.7937587124568600E-002
 chl2c          68  0.39768330732137025        3.7855407263856986E-002  0.72590779999999999        2.5900735561133825E-005   1.1390163060213909E-005
 chl          68   5.6774770384590988E-006   1.4276377544484400E-005  0.39768330732137025     
 chl2c          69  0.10169606226357995        2.1732330561541505E-002  0.45524217500000003        2.5900735561133825E-005   1.6958313609594291E-006
 chl          69   1.3952136834071232E-006   1.3719446479559377E-005  0.10169606226357995     
 chl2c          70   3.2658010878182209E-002   3.2658010878182209E-002  0.48694062500000002        1.7352279234725470E-005   1.3318689679368875E-017
 chl          70   4.4374525480951619E-007   1.3587638771532422E-005   3.2658010878182209E-002
 chl2c          71   4.3481058864416305E-002   4.3481058864416305E-002  0.23986107500000001        1.2451391789699702E-005   1.0897330892466738E-008
 chl          71   5.9084695806503255E-007   1.3588605555983029E-005   4.3481058864416305E-002
 chl2c          72   3.7549776402781669E-002   3.7549776402781669E-002  0.62790522500000001        2.5900735561133825E-005   6.1866894380118953E-016
 chl          72   5.1066957928893163E-007   1.3599803466502174E-005   3.7549776402781669E-002
 chl2c          73   3.1852614277819484E-002   3.1852614277819484E-002  0.35362212500000001        1.7352279234725470E-005   1.2097657800054561E-018
 chl          73   4.3280181673592936E-007   1.3587638771531233E-005   3.1852614277819484E-002
 chl2c          74  0.38925295708982488        3.7616827685877569E-002  0.64719590000000005        2.5900735561133825E-005   1.2648124434958638E-005
 chl          74   5.5638874489385858E-006   1.4293757690464122E-005  0.38925295708982488     
 chl2c          75   3.7826830779512356E-002   3.7826830779512356E-002  0.71554212500000003        2.5900735561133825E-005   6.1866894380118953E-016
 chl          75   5.1443746436200140E-007   1.3599803466502125E-005   3.7826830779512356E-002
 chl2c          76  0.32240165413314997        3.7257729557919804E-002  0.55513977500000000        2.5900735561133825E-005   9.9589645196939127E-006
 chl          76   4.5661917080444298E-006   1.4163052979122184E-005  0.32240165413314997     
 chl2c          77  0.32993543342987131        3.7138172437479272E-002  0.52973029999999999        2.5900735561133825E-005   1.1328738461940354E-005
 chl          77   4.6844771260847321E-006   1.4198163190254711E-005  0.32993543342987131     
 chl2c          78   4.7515248899399322E-002   4.7515248899399322E-002  0.45117492500000000        1.2451391789699702E-005   1.3742038000801755E-017
 chl          78   6.4562003826433586E-007   1.3587638773212817E-005   4.7515248899399322E-002
 prod   4.3801858084602816E-009   18.463207150229625        10.000000000000000     
 chl2c           1  0.37753255977943906        3.7477407714772232E-002  0.60826437499999997        2.0930223185113831E-005   1.0415573188151881E-005
 chl           1   3.6569485051240625E-006   9.6864453419872289E-006  0.37753255977943906     
 chl2c           2   3.2640259920490348E-002   3.2640259920490348E-002  0.48302390000000001        1.4103415527170076E-005   7.0727126089343567E-019
 chl           2   3.0344994141234912E-007   9.2967991722962502E-006   3.2640259920490348E-002
 chl2c           3   3.7922212503796585E-002   3.7922212503796585E-002  0.75128689999999998        2.0930223185113831E-005   6.3962774486961837E-016
 chl           3   3.5300908194980564E-007   9.3087680977069603E-006   3.7922212503796585E-002
 chl2c           4  0.44939095663561623        3.7976509103863923E-002  0.77318742499999993        2.0930223185113831E-005   1.1230028716818744E-005
 chl           4   4.3787335485272418E-006   9.7437064183685607E-006  0.44939095663561623     
 chl2c           5   2.5710500362372445E-002   2.5710500362372445E-002  0.48489679999999996        1.1532070860301829E-005   4.6655876652581906E-016
 chl           5   2.3902535867586774E-007   9.2967991795944809E-006   2.5710500362372445E-002
 chl2c           6   3.1261039902252048E-002   3.1261039902252048E-002  0.29222855000000003        1.4103415527170076E-005   1.1391365529025294E-017
 chl           6   2.9062761076519883E-007   9.2967992003446434E-006   3.1261039902252048E-002
 chl2c           7   4.3064391842467263E-002   4.3064391842467263E-002  0.22770740000000000        1.0189528814691137E-005   9.1899507665912048E-009
 chl           7   4.0038499779015946E-007   9.2973563693827942E-006   4.3064391842467263E-002
 chl2c           8   4.7969800906495587E-002   4.7969800906495587E-002  0.49578364999999996        1.0189528814691137E-005   1.2880452536454136E-008
 chl           8   4.4600306829920513E-007   9.2975801414846371E-006   4.7969800906495587E-002
 chl2c           9  0.24004623729169827        2.4803669054600401E-002  0.28700202499999999        1.1532070860301829E-005   8.4599547474759721E-006
 chl           9   2.2701787592155106E-006   9.4572561720967336E-006  0.24004623729169827     
 chl2c          10   2.5387016219684602E-002   2.5387016219684602E-002  0.39094662499999999        1.1532070860301829E-005   4.8144137910822256E-016
 chl          10   2.3601849656250009E-007   9.2968190716125165E-006   2.5387016219684602E-002
 chl2c          11   2.1820572217820047E-002   2.1820572217820047E-002  0.49737575000000001        2.0930223185113831E-005   4.8388813499337909E-016
 chl          11   2.0286147773393141E-007   9.2967991723086898E-006   2.1820572217820047E-002
 chl2c          12   4.5290941298723353E-002   4.5290941298723353E-002  0.30768942500000002        1.0189528814691137E-005   7.2611484079637800E-019
 chl          12   4.2106078557758174E-007   9.2967991722762111E-006   4.5290941298723353E-002
 chl2c          13   3.7935816987997487E-002   3.7935816987997487E-002  0.75666275000000005        2.0930223185113831E-005   7.4599163700875434E-016
 chl          13   3.5313572292571134E-007   9.3087680973745727E-006   3.7935816987997487E-002
 chl2c          14   4.6856526101924839E-002   4.6856526101924839E-002  0.39804095000000000        1.0189528814691137E-005   8.7116128025220342E-018
 chl          14   4.3561571308013863E-007   9.2967991722767465E-006   4.6856526101924839E-002
 chl2c          15   2.0954299823745293E-002   2.0954299823745293E-002  0.25607262500000000        2.0930223185113831E-005   4.9092056869792028E-016
 chl          15   1.9480875429669302E-007   9.2968391182384850E-006   2.0954299823745293E-002
 chl2c          16   3.8831946468554521E-002   3.7823443882273475E-002  0.71433214999999994        2.0930223185113831E-005   4.2974193666435882E-007
 chl          16   3.6243183183088593E-007   9.3333418690298556E-006   3.8831946468554521E-002
 chl2c          17   3.7542254757581245E-002   3.7542254757581245E-002  0.62580860000000005        2.0930223185113831E-005   6.3962774486961837E-016
 chl          17   3.4947214340335964E-007   9.3087680977069603E-006   3.7542254757581245E-002
 chl2c          18   2.5694475239060960E-002   2.5694475239060960E-002  0.47925950000000000        1.1532070860301829E-005   4.8684417247361820E-016
 chl          18   2.3887637613541316E-007   9.2967991723088880E-006   2.5694475239060960E-002
 chl2c          19  0.39866646354274959        3.7570220750293731E-002  0.63367130000000005        2.0930223185113831E-005   1.1249696468779914E-005
 chl          19   3.8714084839117127E-006   9.7108957937129704E-006  0.39866646354274959     
 chl2c          20   3.7020645196759419E-002   3.7020645196759419E-002  0.50678202500000002        2.0930223185113831E-005   7.6320693087675302E-016
 chl          20   3.4461660094269057E-007   9.3087680971280421E-006   3.7020645196759419E-002
 chl2c          21  0.45834560330869484        3.7838475073783531E-002  0.71973185000000006        2.0930223185113831E-005   1.3207630866546041E-005
 chl          21   4.4803349003357648E-006   9.7750144606891061E-006  0.45834560330869484     
 chl2c          22  0.39320646010013788        3.7613353106285476E-002  0.64616892500000001        2.0930223185113831E-005   1.0511253064636019E-005
 chl          22   3.8133551707308747E-006   9.6980989828084907E-006  0.39320646010013788     
 chl2c          23   3.2286562315070731E-002   3.2286562315070731E-002  0.41564179999999995        1.4103415527170076E-005   7.9209688182115521E-010
 chl          23   3.0016323890637190E-007   9.2968472758792788E-006   3.2286562315070731E-002
 chl2c          24   3.7348402796863071E-002   3.7348402796863071E-002  0.57597492500000003        2.0930223185113831E-005   7.2487009682826952E-016
 chl          24   3.4766762043403036E-007   9.3087680971254620E-006   3.7348402796863071E-002
 chl2c          25   4.5426679235459781E-002   4.5426679235459781E-002  0.31406487500000002        1.0189528814691137E-005   2.1184501933440927E-010
 chl          25   4.2232330025749774E-007   9.2968120797136066E-006   4.5426679235459781E-002
 chl2c          26   4.7955660680174553E-002   4.7955660680174553E-002  0.49427735000000000        1.0189528814691137E-005   6.9788645988723976E-019
 chl          26   4.4583414651740554E-007   9.2967991722762094E-006   4.7955660680174553E-002
 chl2c          27   4.5333133499525620E-002   4.5333133499525620E-002  0.30964730000000001        1.0189528814691137E-005   8.6368057745513913E-018
 chl          27   4.2145303799510088E-007   9.2967991722767431E-006   4.5333133499525620E-002
 chl2c          28   3.1209236063453518E-002   3.1209236063453518E-002  0.28776342500000002        1.4103415527170076E-005   8.5835550046964510E-018
 chl          28   2.9014600000210407E-007   9.2967991722767397E-006   3.1209236063453518E-002
 chl2c          29  0.21495250295605911        3.7743217595736761E-002  0.68676297499999994        2.0930223185113831E-005   3.2743542791443016E-006
 chl          29   2.0365339169056977E-006   9.4743438150241441E-006  0.21495250295605911     
 chl2c          30   2.5380056985171612E-002   2.5380056985171612E-002  0.38930277499999999        1.1532070860301829E-005   4.9287660345835404E-016
 chl          30   2.3595329277290613E-007   9.2967991723092929E-006   2.5380056985171612E-002
 chl2c          31   3.7576959810037038E-002   3.7576959810037038E-002  0.63559385000000002        2.0930223185113831E-005   7.6896432159938481E-016
 chl          31   3.4979615226377939E-007   9.3087933146296384E-006   3.7576959810037038E-002
 chl2c          32  0.17154949832587141        2.0893126428578448E-002  0.24722667500000001        2.0930223185113831E-005   5.8649420159234912E-006
 chl          32   1.6261205969712187E-006   9.4790169183839761E-006  0.17154949832587141     
 chl2c          33  0.40509112850003198        3.7458922634011876E-002  0.60343137499999999        2.0930223185113831E-005   1.2897740493994742E-005
 chl          33   3.9428873603087290E-006   9.7333342621163260E-006  0.40509112850003198     
 chl2c          34   2.5350269098008315E-002   2.5350269098008315E-002  0.38241020000000003        1.1532070860301829E-005   4.6457582797057881E-016
 chl          34   2.3567636076820190E-007   9.2967991723100958E-006   2.5350269098008315E-002
 chl2c          35   2.5740370148566064E-002   2.5740370148566064E-002  0.49574644999999995        1.1532070860301829E-005   4.6963362907455299E-016
 chl          35   2.3930305189208365E-007   9.2967991723077326E-006   2.5740370148566064E-002
 chl2c          36   3.7770393924465726E-002   3.7770393924465726E-002  0.69587337500000002        2.0930223185113831E-005   6.3962774486961837E-016
 chl          36   3.5159583800189136E-007   9.3087680977069603E-006   3.7770393924465726E-002
 chl2c          37   2.1353674699533250E-002   2.1353674699533250E-002  0.33194060000000003        2.0930223185113831E-005   4.6241219480810244E-016
 chl          37   1.9852082527233894E-007   9.2967991723072481E-006   2.1353674699533250E-002
 chl2c          38   2.1543295686358745E-002   2.1543295686358745E-002  0.38455722500000000        2.0930223185113831E-005   4.9417067080065643E-016
 chl          38   2.0028369350575625E-007   9.2967991723093809E-006   2.1543295686358745E-002
 chl2c          39   2.5670077108751441E-002   2.5670077108751441E-002  0.47091117500000002        1.1532070860301829E-005   4.7948745584019839E-016
 chl          39   2.3864955161773308E-007   9.2967991723083950E-006   2.5670077108751441E-002
 chl2c          40   3.7687445774703773E-002   3.7687445774703773E-002  0.66875547499999999        2.0930223185113831E-005   4.1024843916730951E-007
 chl          40   3.5171491125188626E-007   9.3324157162160659E-006   3.7687445774703773E-002
 chl2c          41  0.19386630693375220        2.5582381488167241E-002  0.44304987499999998        1.1532070860301829E-005   1.9875261987509773E-006
 chl          41   1.8199077485470214E-006   9.3874370298337528E-006  0.19386630693375220     
 chl2c          42  0.12919863216338193        3.7949995630725070E-002  0.76234377499999995        2.0930223185113831E-005   1.6279810987208087E-006
 chl          42   1.2141657382542380E-006   9.3976671263735138E-006  0.12919863216338193     
 chl2c          43  0.21727028879440261        2.1185090152268007E-002  0.29539925000000000        2.0930223185113831E-005   8.5968934406484043E-006
 chl          43   2.0720937455288142E-006   9.5369401726601662E-006  0.21727028879440261     
 chl2c          44   3.7536352708156646E-002   3.7536352708156646E-002  0.62417262500000004        2.0930223185113831E-005   7.2694617021347711E-016
 chl          44   3.4941720257214273E-007   9.3087680971256009E-006   3.7536352708156646E-002
 chl2c          45   4.6544927192009838E-002   4.6544927192009838E-002  0.37662252499999999        1.0189528814691137E-005   9.2921850487635337E-019
 chl          45   4.3271884059233411E-007   9.2967991722762230E-006   4.6544927192009838E-002
 chl2c          46   3.7083195475449568E-002   3.7083195475449568E-002  0.51876034999999998        2.0930223185113831E-005   1.0585710023341577E-007
 chl          46   3.4546850523664784E-007   9.3160392681197230E-006   3.7083195475449568E-002
 chl2c          47   3.7519784612651236E-002   3.7519784612651236E-002  0.61962282499999999        2.0930223185113831E-005   7.7129565717766889E-016
 chl          47   3.4926297401338384E-007   9.3087680971285859E-006   3.7519784612651236E-002
 chl2c          48   3.7823212136301673E-002   3.7823212136301673E-002  0.71424949999999998        2.0930223185113831E-005   7.6459246025404025E-016
 chl          48   3.5208792311027157E-007   9.3087790069618999E-006   3.7823212136301673E-002
 chl2c          49   3.7152990741888416E-002   3.7152990741888416E-002  0.53276120000000005        2.0930223185113831E-005   7.5186953757644665E-016
 chl          49   3.4584857493095602E-007   9.3087680971272781E-006   3.7152990741888416E-002
 chl2c          50  0.25202904460651043        2.1533072915600981E-002  0.38132569999999999        2.0930223185113831E-005   7.7786322911481256E-006
 chl          50   2.4086860264762793E-006   9.5571763573398002E-006  0.25202904460651043     
 chl2c          51   2.0700971146093840E-002   2.0700971146093840E-002  0.22275920000000002        2.0930223185113831E-005   4.9789725730086800E-016
 chl          51   1.9245277141701076E-007   9.2967991723096300E-006   2.0700971146093840E-002
 chl2c          52   3.7581825176985564E-002   3.7581825176985564E-002  0.63698869999999996        2.0930223185113831E-005   6.3962774486961837E-016
 chl          52   3.4984068124853974E-007   9.3087730465729453E-006   3.7581825176985564E-002
 chl2c          53  0.16924823368636221        3.7925801262726190E-002  0.75269794999999995        2.0930223185113831E-005   2.2849952883678351E-006
 chl          53   1.5960491863010844E-006   9.4302265467582947E-006  0.16924823368636221     
 chl2c          54   3.7082433371327092E-002   3.7082433371327092E-002  0.51861124999999997        2.0930223185113831E-005   7.2663634758921660E-016
 chl          54   3.4519177273079462E-007   9.3087680971255806E-006   3.7082433371327092E-002
 chl2c          55  0.38849835964913049        3.7357235588660491E-002  0.57808280000000001        2.0930223185113831E-005   1.2397108724102241E-005
 chl          55   3.7746699281055151E-006   9.7160511347192851E-006  0.38849835964913049     
 chl2c          56   3.7507394187257688E-002   3.7507394187257688E-002  0.61626080000000005        2.0930223185113831E-005   6.3962774486961837E-016
 chl          56   3.4914763443846387E-007   9.3087680977069603E-006   3.7507394187257688E-002
 chl2c          57   3.7727617852646313E-002   3.7727617852646313E-002  0.68163462500000005        2.0930223185113831E-005   7.8036419248192804E-016
 chl          57   3.5119764614115641E-007   9.3087681155178609E-006   3.7727617852646313E-002
 chl2c          58  0.42179038680563347        3.7765358178394853E-002  0.69416802499999997        2.0930223185113831E-005   1.1249512340658826E-005
 chl          58   4.1024865731057957E-006   9.7263633819996833E-006  0.42179038680563347     
 chl2c          59  0.36976653571193047        3.7173699120809672E-002  0.53705127500000005        2.0930223185113831E-005   1.2423126179688603E-005
 chl          59   3.5874873936511107E-006   9.7020337082260226E-006  0.36976653571193047     
 chl2c          60  0.42067797705164611        3.7607757740906807E-002  0.64452155000000000        2.0930223185113831E-005   1.2676123275448797E-005
 chl          60   4.0984316713728231E-006   9.7424440901256494E-006  0.42067797705164611     
 chl2c          61   3.7805373434125003E-002   3.7805373434125003E-002  0.70794139999999994        2.0930223185113831E-005   7.5924164479639252E-016
 chl          61   3.5192145412358473E-007   9.3087680971277744E-006   3.7805373434125003E-002
 chl2c          62   3.7956103087269030E-002   3.7956103087269030E-002  0.76481592499999995        2.0930223185113831E-005   7.2147125309775051E-016
 chl          62   3.5332502306948741E-007   9.3087802574758322E-006   3.7956103087269030E-002
 chl2c          63  0.43302510658169252        3.7855601011927406E-002  0.72597904999999996        2.0930223185113831E-005   1.1230049764747218E-005
 chl          63   4.2147988841476985E-006   9.7333822452452962E-006  0.43302510658169252     
 chl2c          64   2.5708982294816416E-002   2.5708982294816416E-002  0.48435739999999999        1.1532070860301829E-005   4.5080414910399856E-016
 chl          64   2.3901124531929085E-007   9.2967991723064671E-006   2.5708982294816416E-002
 chl2c          65  0.42578080113494859        3.7953597170552002E-002  0.76379975000000000        2.0930223185113831E-005   1.0068584135596051E-005
 chl          65   4.1352025339072523E-006   9.7120455475788950E-006  0.42578080113494859     
 chl2c          66   3.1840477731474713E-002   3.1840477731474713E-002  0.35213202499999996        1.4103415527170076E-005   7.6433600612144516E-019
 chl          66   2.9601452701885328E-007   9.2967991722762128E-006   3.1840477731474713E-002
 chl2c          67   3.7937587124568600E-002   3.7937587124568600E-002  0.75736760000000003        2.0930223185113831E-005   7.5083960544626587E-016
 chl          67   3.5315220070716816E-007   9.3087680971272086E-006   3.7937587124568600E-002
 chl2c          68  0.43325789900114131        3.7855407263856986E-002  0.72590779999999999        2.0930223185113831E-005   1.1246656592873469E-005
 chl          68   4.2172255934381583E-006   9.7337535060775641E-006  0.43325789900114131     
 chl2c          69   2.1732330561541505E-002   2.1732330561541505E-002  0.45524217500000003        2.0930223185113831E-005   4.6701827570024250E-016
 chl          69   2.0204179958350690E-007   9.2968307752988544E-006   2.1732330561541505E-002
 chl2c          70   3.2658010878182209E-002   3.2658010878182209E-002  0.48694062500000002        1.4103415527170076E-005   1.0592668956474437E-017
 chl          70   3.0361496850049342E-007   9.2967991722768718E-006   3.2658010878182209E-002
 chl2c          71   4.3481058864416305E-002   4.3481058864416305E-002  0.23986107500000001        1.0189528814691137E-005   1.2375684275496864E-008
 chl          71   4.0426729715993279E-007   9.2975495012789104E-006   4.3481058864416305E-002
 chl2c          72   3.7549776402781669E-002   3.7549776402781669E-002  0.62790522500000001        2.0930223185113831E-005   6.3962774486961837E-016
 chl          72   3.4954216066197424E-007   9.3087680979128367E-006   3.7549776402781669E-002
 chl2c          73   3.1852614277819484E-002   3.1852614277819484E-002  0.35362212500000001        1.4103415527170076E-005   9.5964154721097886E-019
 chl          73   2.9612735805286602E-007   9.2967991722762247E-006   3.1852614277819484E-002
 chl2c          74  0.42899371742468562        3.7616827685877569E-002  0.64719590000000005        2.0930223185113831E-005   1.3315928752049790E-005
 chl          74   4.1849285126703051E-006   9.7552209803748787E-006  0.42899371742468562     
 chl2c          75   3.7826830779512356E-002   3.7826830779512356E-002  0.71554212500000003        2.0930223185113831E-005   6.3962774486961837E-016
 chl          75   3.5212119559768434E-007   9.3087680977069603E-006   3.7826830779512356E-002
 chl2c          76  0.31913729429898052        3.7257729557919804E-002  0.55513977500000000        2.0930223185113831E-005   7.8561035547794135E-006
 chl          76   3.0684915534607648E-006   9.6149576006183719E-006  0.31913729429898052     
 chl2c          77  0.36687974969856602        3.7138172437479272E-002  0.52973029999999999        2.0930223185113831E-005   1.2489158841695788E-005
 chl          77   3.5588897120853503E-006   9.7004255890639602E-006  0.36687974969856602     
 chl2c          78   4.7515248899399322E-002   4.7515248899399322E-002  0.45117492500000000        1.0189528814691137E-005   1.0930841874267303E-017
 chl          78   4.4173972663848231E-007   9.2967991722772327E-006   4.7515248899399322E-002
 prod   3.4729841222020295E-009   14.883505773021234        10.000000000000000     
 chl2c           1  0.41338331323909011        3.7477407714772232E-002  0.60826437499999997        1.6937758207704619E-005   1.0927017011687126E-005
 chl           1   2.1529924197319276E-006   5.2082228546237742E-006  0.41338331323909011     
 chl2c           2   3.2640259920490348E-002   3.2640259920490348E-002  0.48302390000000001        1.1472218955700106E-005   5.2270568934013038E-019
 chl           2   1.6340573614200920E-007   5.0062633244972754E-006   3.2640259920490348E-002
 chl2c           3   3.7922212503796585E-002   3.7922212503796585E-002  0.75128689999999998        1.6937758207704619E-005   6.6596698568771060E-016
 chl           3   1.9030242777288484E-007   5.0182311423372963E-006   3.7922212503796585E-002
 chl2c           4  0.48500310321843565        3.7976509103863923E-002  0.77318742499999993        1.6937758207704619E-005   1.1020083436200729E-005
 chl           4   2.5371290574865045E-006   5.2311604619647820E-006  0.48500310321843565     
 chl2c           5   2.5710500362372445E-002   2.5710500362372445E-002  0.48489679999999996        9.4095955823678232E-006   4.8968501985728440E-016
 chl           5   1.2871353501911171E-007   5.0062633245164362E-006   2.5710500362372445E-002
 chl2c           6   3.1261039902252048E-002   3.1261039902252048E-002  0.29222855000000003        1.1472218955700106E-005   3.2362552493490960E-009
 chl           6   1.5650465532033706E-007   5.0063803318667738E-006   3.1261039902252048E-002
 chl2c           7   4.3064391842467263E-002   4.3064391842467263E-002  0.22770740000000000        8.3428687689716056E-006   4.0781026742068722E-009
 chl           7   2.1559740588034795E-007   5.0063961583161151E-006   4.3064391842467263E-002
 chl2c           8   4.7969800906495587E-002   4.7969800906495587E-002  0.49578364999999996        8.3428687689716056E-006   9.0950889453803443E-009
 chl           8   2.4016366902109495E-007   5.0065596371606877E-006   4.7969800906495587E-002
 chl2c           9  0.24672571150861464        2.4803669054600401E-002  0.28700202499999999        9.4095955823678232E-006   8.2716208837620512E-006
 chl           9   1.2534498370928890E-006   5.0803373082951822E-006  0.24672571150861464     
 chl2c          10   2.5387016219684602E-002   2.5387016219684602E-002  0.39094662499999999        9.4095955823678232E-006   5.0093611628904292E-016
 chl          10   1.2709408832721141E-007   5.0062633287587812E-006   2.5387016219684602E-002
 chl2c          11   2.1820572217820047E-002   2.1820572217820047E-002  0.49737575000000001        1.6937758207704619E-005   5.0276741498710484E-016
 chl          11   1.0923953041401331E-007   5.0062633245154528E-006   2.1820572217820047E-002
 chl2c          12   4.5290941298723353E-002   4.5290941298723353E-002  0.30768942500000002        8.3428687689716056E-006   5.3663674752853409E-019
 chl          12   2.2673837835575757E-007   5.0062633244972721E-006   4.5290941298723353E-002
 chl2c          13   3.7935816987997487E-002   3.7935816987997487E-002  0.75666275000000005        1.6937758207704619E-005   8.0190586800659178E-016
 chl          13   1.9037074231448726E-007   5.0182323047034591E-006   3.7935816987997487E-002
 chl2c          14   4.6856526101924839E-002   4.6856526101924839E-002  0.39804095000000000        8.3428687689716056E-006   6.4450484164612828E-018
 chl          14   2.3457610813742550E-007   5.0062633244974864E-006   4.6856526101924839E-002
 chl2c          15   2.0954299823745293E-002   2.0954299823745293E-002  0.25607262500000000        1.6937758207704619E-005   5.0800247281126254E-016
 chl          15   1.0490274287699706E-007   5.0062633330330543E-006   2.0954299823745293E-002
 chl2c          16  0.21580240142892693        3.7823443882273475E-002  0.71433214999999994        1.6937758207704619E-005   2.6187336231137998E-006
 chl          16   1.0984180787752415E-006   5.0899251885155606E-006  0.21580240142892693     
 chl2c          17   3.7542254757581245E-002   3.7542254757581245E-002  0.62580860000000005        1.6937758207704619E-005   6.6596698568771060E-016
 chl          17   1.8839571197805473E-007   5.0182311423372963E-006   3.7542254757581245E-002
 chl2c          18   2.5694475239060960E-002   2.5694475239060960E-002  0.47925950000000000        9.4095955823678232E-006   5.0497305527586716E-016
 chl          18   1.2863330903198335E-007   5.0062633245155324E-006   2.5694475239060960E-002
 chl2c          19  0.42799084776496471        3.7570220750293731E-002  0.63367130000000005        1.6937758207704619E-005   1.1166869334893417E-005
 chl          19   2.2316540034430235E-006   5.2142563680907438E-006  0.42799084776496471     
 chl2c          20   3.7020645196759419E-002   3.7020645196759419E-002  0.50678202500000002        1.6937758207704619E-005   8.1559296473575730E-016
 chl          20   1.8577815462968788E-007   5.0182311421722562E-006   3.7020645196759419E-002
 chl2c          21  0.49625415991818977        3.7838475073783531E-002  0.71973185000000006        1.6937758207704619E-005   1.3535261214492885E-005
 chl          21   2.6047503993939197E-006   5.2488233042184010E-006  0.49625415991818977     
 chl2c          22  0.40716187505203272        3.7613353106285476E-002  0.64616892500000001        1.6937758207704619E-005   9.3224142206891835E-006
 chl          22   2.1160824296591069E-006   5.1971526788668142E-006  0.40716187505203272     
 chl2c          23   3.2286562315070731E-002   3.2286562315070731E-002  0.41564179999999995        1.1472218955700106E-005   4.0769488672495796E-009
 chl          23   1.6163932257855186E-007   5.0063961905012665E-006   3.2286562315070731E-002
 chl2c          24   3.7348402796863071E-002   3.7348402796863071E-002  0.57597492500000003        1.6937758207704619E-005   7.8489090453221915E-016
 chl          24   1.8742291802556784E-007   5.0182311421710831E-006   3.7348402796863071E-002
 chl2c          25   4.5426679235459781E-002   4.5426679235459781E-002  0.31406487500000002        8.3428687689716056E-006   2.7070297989999604E-009
 chl          25   2.2742192588376660E-007   5.0063515474017407E-006   4.5426679235459781E-002
 chl2c          26   4.7955660680174553E-002   4.7955660680174553E-002  0.49427735000000000        8.3428687689716056E-006   5.1576759902302089E-019
 chl          26   2.4007866526519378E-007   5.0062633244972721E-006   4.7955660680174553E-002
 chl2c          27   4.5333133499525620E-002   4.5333133499525620E-002  0.30964730000000001        8.3428687689716056E-006   6.3895119635879718E-018
 chl          27   2.2694960362322341E-007   5.0062633244974847E-006   4.5333133499525620E-002
 chl2c          28   3.1209236063453518E-002   3.1209236063453518E-002  0.28776342500000002        1.1472218955700106E-005   6.3499808300440935E-018
 chl          28   1.5624165389005154E-007   5.0062633244974830E-006   3.1209236063453518E-002
 chl2c          29   5.3703024133033100E-002   3.7743217595736761E-002  0.68676297499999994        1.6937758207704619E-005   4.9338587180406170E-007
 chl          29   2.7030685520746994E-007   5.0333637550441472E-006   5.3703024133033100E-002
 chl2c          30   2.5380056985171612E-002   2.5380056985171612E-002  0.38930277499999999        9.4095955823678232E-006   5.0945114741501396E-016
 chl          30   1.2705924845898301E-007   5.0062633245156942E-006   2.5380056985171612E-002
 chl2c          31   3.7576959810037038E-002   3.7576959810037038E-002  0.63559385000000002        1.6937758207704619E-005   8.2013467277978226E-016
 chl          31   1.8856987022400337E-007   5.0182311495469943E-006   3.7576959810037038E-002
 chl2c          32  0.14858392593910802        2.0893126428578448E-002  0.24722667500000001        1.6937758207704619E-005   3.1537547918691788E-006
 chl          32   7.5323644946605830E-007   5.0694342924735088E-006  0.14858392593910802     
 chl2c          33  0.43548135081533274        3.7458922634011876E-002  0.60343137499999999        1.6937758207704619E-005   1.3250836982894422E-005
 chl          33   2.2760028960107347E-006   5.2264072657749268E-006  0.43548135081533274     
 chl2c          34   2.5350269098008315E-002   2.5350269098008315E-002  0.38241020000000003        9.4095955823678232E-006   4.8817121021648343E-016
 chl          34   1.2691012245194307E-007   5.0062633245149251E-006   2.5350269098008315E-002
 chl2c          35   2.5740370148566064E-002   2.5740370148566064E-002  0.49574644999999995        9.4095955823678232E-006   4.9202551844706474E-016
 chl          35   1.2886307103420864E-007   5.0062633245150640E-006   2.5740370148566064E-002
 chl2c          36   3.7770393924465726E-002   3.7770393924465726E-002  0.69587337500000002        1.6937758207704619E-005   6.6596698568771060E-016
 chl          36   1.8954056705010132E-007   5.0182311423372963E-006   3.7770393924465726E-002
 chl2c          37   2.1353674699533250E-002   2.1353674699533250E-002  0.33194060000000003        1.6937758207704619E-005   4.8651545285455698E-016
 chl          37   1.0690211849189428E-007   5.0062633245148649E-006   2.1353674699533250E-002
 chl2c          38   2.1543295686358745E-002   2.1543295686358745E-002  0.38455722500000000        1.6937758207704619E-005   5.1040779584442684E-016
 chl          38   1.0785141108381570E-007   5.0062633245157289E-006   2.1543295686358745E-002
 chl2c          39   2.5670077108751441E-002   2.5670077108751441E-002  0.47091117500000002        9.4095955823678232E-006   4.9946998208748561E-016
 chl          39   1.2851116556702296E-007   5.0062633245153342E-006   2.5670077108751441E-002
 chl2c          40  0.20998483207896596        3.7687445774703773E-002  0.66875547499999999        1.6937758207704619E-005   2.5923019692163915E-006
 chl          40   1.0685371196382475E-006   5.0886395415284952E-006  0.20998483207896596     
 chl2c          41  0.30334597552160530        2.5582381488167241E-002  0.44304987499999998        9.4095955823678232E-006   4.5260910878443531E-006
 chl          41   1.5420762479250658E-006   5.0835559801756262E-006  0.30334597552160530     
 chl2c          42  0.31893040177478310        3.7949995630725070E-002  0.76234377499999995        1.6937758207704619E-005   4.6436975344732058E-006
 chl          42   1.6376360332699568E-006   5.1347755628088254E-006  0.31893040177478310     
 chl2c          43  0.22859194412648670        2.1185090152268007E-002  0.29539925000000000        1.6937758207704619E-005   8.5599708232818374E-006
 chl          43   1.1704582394010433E-006   5.1202952224484080E-006  0.22859194412648670     
 chl2c          44   3.7536352708156646E-002   3.7536352708156646E-002  0.62417262500000004        1.6937758207704619E-005   7.8657432409613953E-016
 chl          44   1.8836609412359304E-007   5.0182311421711762E-006   3.7536352708156646E-002
 chl2c          45   4.6544927192009838E-002   4.6544927192009838E-002  0.37662252499999999        8.3428687689716056E-006   6.8680708287876606E-019
 chl          45   2.3301616194275490E-007   5.0062633244972771E-006   4.6544927192009838E-002
 chl2c          46   3.7083195475449568E-002   3.7083195475449568E-002  0.51876034999999998        1.6937758207704619E-005   8.2001350713773254E-016
 chl          46   1.8609229373023896E-007   5.0182378121496801E-006   3.7083195475449568E-002
 chl2c          47   3.7519784612651236E-002   3.7519784612651236E-002  0.61962282499999999        1.6937758207704619E-005   8.2196869401209900E-016
 chl          47   1.8828295159080826E-007   5.0182311421724273E-006   3.7519784612651236E-002
 chl2c          48  0.14753048253853504        3.7823212136301673E-002  0.71424949999999998        1.6937758207704619E-005   1.5746710914351424E-006
 chl          48   7.4705628527928036E-007   5.0637418954021852E-006  0.14753048253853504     
 chl2c          49   3.7152990741888416E-002   3.7152990741888416E-002  0.53276120000000005        1.6937758207704619E-005   8.0659723134174071E-016
 chl          49   1.8644229516576761E-007   5.0182311421718699E-006   3.7152990741888416E-002
 chl2c          50  0.25442076408313569        2.1533072915600981E-002  0.38132569999999999        1.6937758207704619E-005   6.4743481272333074E-006
 chl          50   1.3029687470456048E-006   5.1213144954624878E-006  0.25442076408313569     
 chl2c          51   2.0700971146093840E-002   2.0700971146093840E-002  0.22275920000000002        1.6937758207704619E-005   5.1315491893522845E-016
 chl          51   1.0363451263054999E-007   5.0062633245158289E-006   2.0700971146093840E-002
 chl2c          52   7.1707098516082313E-002   3.7581825176985564E-002  0.63698869999999996        1.6937758207704619E-005   6.8431326855727231E-007
 chl          52   3.6132257690938451E-007   5.0388676210117173E-006   7.1707098516082313E-002
 chl2c          53  0.32493821143830315        3.7925801262726190E-002  0.75269794999999995        1.6937758207704619E-005   4.8422537751551908E-006
 chl          53   1.6696340518765995E-006   5.1383124332658465E-006  0.32493821143830315     
 chl2c          54   3.7082433371327092E-002   3.7082433371327092E-002  0.51861124999999997        1.6937758207704619E-005   7.8632325225118522E-016
 chl          54   1.8608822197147974E-007   5.0182311421711347E-006   3.7082433371327092E-002
 chl2c          55  0.39862042170976208        3.7357235588660491E-002  0.57808280000000001        1.6937758207704619E-005   1.0874319937319367E-005
 chl          55   2.0740504447538843E-006   5.2030712221362624E-006  0.39862042170976208     
 chl2c          56   3.7507394187257688E-002   3.7507394187257688E-002  0.61626080000000005        1.6937758207704619E-005   6.6596698568771060E-016
 chl          56   1.8822077357841741E-007   5.0182311423372963E-006   3.7507394187257688E-002
 chl2c          57   3.7727617852646313E-002   3.7727617852646313E-002  0.68163462500000005        1.6937758207704619E-005   8.2907524247500674E-016
 chl          57   1.8932590682830109E-007   5.0182311421769581E-006   3.7727617852646313E-002
 chl2c          58  0.45488919144939588        3.7765358178394853E-002  0.69416802499999997        1.6937758207704619E-005   1.1176141024707684E-005
 chl          58   2.3758492596041499E-006   5.2229186893495382E-006  0.45488919144939588     
 chl2c          59  0.40172470831525114        3.7173699120809672E-002  0.53705127500000005        1.6937758207704619E-005   1.3501659946270298E-005
 chl          59   2.0949517570132104E-006   5.2148939650712472E-006  0.40172470831525114     
 chl2c          60  0.45515962702664464        3.7607757740906807E-002  0.64452155000000000        1.6937758207704619E-005   1.3120018690445777E-005
 chl          60   2.3817633476613891E-006   5.2328089009572080E-006  0.45515962702664464     
 chl2c          61   3.7805373434125003E-002   3.7805373434125003E-002  0.70794139999999994        1.6937758207704619E-005   8.1245458894699373E-016
 chl          61   1.8971610230857122E-007   5.0182311421720825E-006   3.7805373434125003E-002
 chl2c          62  0.16354135304913117        3.7956103087269030E-002  0.76481592499999995        1.6937758207704619E-005   1.7617229185176167E-006
 chl          62   8.2898508116063886E-007   5.0689630830655706E-006  0.16354135304913117     
 chl2c          63  0.46599661818787652        3.7855601011927406E-002  0.72597904999999996        1.6937758207704619E-005   1.1020182447130081E-005
 chl          63   2.4350367326996821E-006   5.2254386355180475E-006  0.46599661818787652     
 chl2c          64   2.5708982294816416E-002   2.5708982294816416E-002  0.48435739999999999        9.4095955823678232E-006   4.7756014550724790E-016
 chl          64   1.2870593517313310E-007   5.0062633245145414E-006   2.5708982294816416E-002
 chl2c          65  0.47725802801578221        3.7953597170552002E-002  0.76379975000000000        1.6937758207704619E-005   1.0773847428147872E-005
 chl          65   2.4947493594433345E-006   5.2272548872888461E-006  0.47725802801578221     
 chl2c          66   3.1840477731474713E-002   3.1840477731474713E-002  0.35213202499999996        1.1472218955700106E-005   5.6489441864196276E-019
 chl          66   1.5940181590155400E-007   5.0062633244972738E-006   3.1840477731474713E-002
 chl2c          67   3.7937587124568600E-002   3.7937587124568600E-002  0.75736760000000003        1.6937758207704619E-005   8.0577656855161773E-016
 chl          67   1.9037958116736760E-007   5.0182311421718403E-006   3.7937587124568600E-002
 chl2c          68  0.46831261680189751        3.7855407263856986E-002  0.72590779999999999        1.6937758207704619E-005   1.1176492129471382E-005
 chl          68   2.4479125933698545E-006   5.2270908481745093E-006  0.46831261680189751     
 chl2c          69   2.1732330561541505E-002   2.1732330561541505E-002  0.45524217500000003        1.6937758207704619E-005   4.9003531796424733E-016
 chl          69   1.0879776959290955E-007   5.0062633312527884E-006   2.1732330561541505E-002
 chl2c          70   3.2658010878182209E-002   3.2658010878182209E-002  0.48694062500000002        1.1472218955700106E-005   7.8426358787250984E-018
 chl          70   1.6349460211048519E-007   5.0062633244975372E-006   3.2658010878182209E-002
 chl2c          71   4.3481058864416305E-002   4.3481058864416305E-002  0.23986107500000001        8.3428687689716056E-006   1.0076399706189316E-008
 chl          71   2.1769190443574706E-007   5.0065916084187194E-006   4.3481058864416305E-002
 chl2c          72   3.7549776402781669E-002   3.7549776402781669E-002  0.62790522500000001        1.6937758207704619E-005   6.6596698568771060E-016
 chl          72   1.8843349361369056E-007   5.0182321085600790E-006   3.7549776402781669E-002
 chl2c          73   3.1852614277819484E-002   3.1852614277819484E-002  0.35362212500000001        1.1472218955700106E-005   7.0930369489651419E-019
 chl          73   1.5946257464840607E-007   5.0062633244972788E-006   3.1852614277819484E-002
 chl2c          74  0.46140594958333564        3.7616827685877569E-002  0.64719590000000005        1.6937758207704619E-005   1.3612022614590076E-005
 chl          74   2.4164515216086875E-006   5.2371485972186110E-006  0.46140594958333564     
 chl2c          75   3.7826830779512356E-002   3.7826830779512356E-002  0.71554212500000003        1.6937758207704619E-005   6.6596698568771060E-016
 chl          75   1.8982378023367189E-007   5.0182311423372963E-006   3.7826830779512356E-002
 chl2c          76  0.29616326820925970        3.7257729557919804E-002  0.55513977500000000        1.6937758207704619E-005   5.3764932341455464E-006
 chl          76   1.5215467984888355E-006   5.1375270393550566E-006  0.29616326820925970     
 chl2c          77  0.39417910714214993        3.7138172437479272E-002  0.52973029999999999        1.6937758207704619E-005   1.3045808695768785E-005
 chl          77   2.0538562752624043E-006   5.2104645782804953E-006  0.39417910714214993     
 chl2c          78   4.7515248899399322E-002   4.7515248899399322E-002  0.45117492500000000        8.3428687689716056E-006   8.0941158417777528E-018
 chl          78   2.3787384791943518E-007   5.0062633244975456E-006   4.7515248899399322E-002
 prod   2.5658331769693518E-009   12.018968596058732        10.000000000000000     
 chl2c           1  0.44807992351630266        3.7477407714772232E-002  0.60826437499999997        1.3253084826300457E-005   1.1274946516410396E-005
 chl           1   3.3590196996901769E-007   7.4964744533303434E-007  0.44807992351630266     
 chl2c           2   3.2640259920490348E-002   3.2640259920490348E-002  0.48302390000000001        9.0250567294076865E-006   3.3537424663975975E-019
 chl           2   2.3379207071746123E-008   7.1626902263328852E-007   3.2640259920490348E-002
 chl2c           3   3.7922212503796585E-002   3.7922212503796585E-002  0.75128689999999998        1.3253084826300457E-005   7.0074387385375011E-016
 chl           3   2.7502925271206682E-008   7.2524579805182059E-007   3.7922212503796585E-002
 chl2c           4  0.52572804226178660        3.7976509103863923E-002  0.77318742499999993        1.3253084826300457E-005   1.0885013742601446E-005
 chl           4   3.9558589706788181E-007   7.5245348405991925E-007  0.52572804226178660     
 chl2c           5   2.5710500362372445E-002   2.5710500362372445E-002  0.48489679999999996        7.4330202612462184E-006   5.0815755479545429E-016
 chl           5   1.8415634966036947E-008   7.1626902263591877E-007   2.5710500362372445E-002
 chl2c           6   3.1261039902252048E-002   3.1261039902252048E-002  0.29222855000000003        9.0250567294076865E-006   1.9780858862333014E-008
 chl           6   2.2394486019588922E-008   7.1637047550601863E-007   3.1261039902252048E-002
 chl2c           7   4.3064391842467263E-002   4.3064391842467263E-002  0.22770740000000000        6.6110773331351584E-006   1.2112603421031986E-009
 chl           7   3.0845933996143071E-008   7.1627469183774345E-007   4.3064391842467263E-002
 chl2c           8   4.7969800906495587E-002   4.7969800906495587E-002  0.49578364999999996        6.6110773331351584E-006   5.6280042718216430E-009
 chl           8   3.4360543344006658E-008   7.1629530860433276E-007   4.7969800906495587E-002
 chl2c           9  0.25266699079729260        2.4803669054600401E-002  0.28700202499999999        7.4330202612462184E-006   7.8493068232509990E-006
 chl           9   1.8318705891230643E-007   7.2501381495959671E-007  0.25266699079729260     
 chl2c          10   2.5387016219684602E-002   2.5387016219684602E-002  0.39094662499999999        7.4330202612462184E-006   5.1626312203488954E-016
 chl          10   1.8183933295330615E-008   7.1626902263650597E-007   2.5387016219684602E-002
 chl2c          11   2.1820572217820047E-002   2.1820572217820047E-002  0.49737575000000001        1.3253084826300457E-005   5.1757182052346770E-016
 chl          11   1.5629399935815502E-008   7.1626902263596715E-007   2.1820572217820047E-002
 chl2c          12   4.5290941298723353E-002   4.5290941298723353E-002  0.30768942500000002        6.6110773331351584E-006   3.4431570289731130E-019
 chl          12   3.2440498258178228E-008   7.1626902263328873E-007   4.5290941298723353E-002
 chl2c          13  0.16289792786122631        3.7935816987997487E-002  0.75666275000000005        1.3253084826300457E-005   1.3755945051138428E-006
 chl          13   1.1906362434730823E-007   7.3090938546952679E-007  0.16289792786122631     
 chl2c          14   4.6856526101924839E-002   4.6856526101924839E-002  0.39804095000000000        6.6110773331351584E-006   4.1589011768694317E-018
 chl          14   3.3561878155017803E-008   7.1626902263330832E-007   4.6856526101924839E-002
 chl2c          15   2.0954299823745293E-002   2.0954299823745293E-002  0.25607262500000000        1.3253084826300457E-005   5.2129667495629357E-016
 chl          15   1.5008915854798408E-008   7.1626902263708143E-007   2.0954299823745293E-002
 chl2c          16  0.35462163137596853        3.7823443882273475E-002  0.71433214999999994        1.3253084826300457E-005   4.6665859018192510E-006
 chl          16   2.6269683827197128E-007   7.4078063781016523E-007  0.35462163137596853     
 chl2c          17   3.7542254757581245E-002   3.7542254757581245E-002  0.62580860000000005        1.3253084826300457E-005   7.0074387385375011E-016
 chl          17   2.7227362512326769E-008   7.2524579805182059E-007   3.7542254757581245E-002
 chl2c          18   2.5694475239060960E-002   2.5694475239060960E-002  0.47925950000000000        7.4330202612462184E-006   5.1914411460732786E-016
 chl          18   1.8404156666626461E-008   7.1626902263597531E-007   2.5694475239060960E-002
 chl2c          19  0.46176406112689261        3.7570220750293731E-002  0.63367130000000005        1.3253084826300457E-005   1.1279165880630844E-005
 chl          19   3.4642214878488091E-007   7.5021461813089053E-007  0.46176406112689261     
 chl2c          20   3.7020645196759419E-002   3.7020645196759419E-002  0.50678202500000002        1.3253084826300457E-005   8.5883073817048469E-016
 chl          20   2.6849067385266513E-008   7.2524579846103629E-007   3.7020645196759419E-002
 chl2c          21  0.53483485844408285        3.7838475073783531E-002  0.71973185000000006        1.3253084826300457E-005   1.3795821421823687E-005
 chl          21   4.0358465047586893E-007   7.5459675842737507E-007  0.53483485844408285     
 chl2c          22  0.42250387814924323        3.7613353106285476E-002  0.64616892500000001        1.3253084826300457E-005   8.0884560481681347E-006
 chl          22   3.1542849724204937E-007   7.4656947203364826E-007  0.42250387814924323     
 chl2c          23   3.2286562315070731E-002   3.2286562315070731E-002  0.41564179999999995        9.0250567294076865E-006   4.3772351526774866E-009
 chl          23   2.3126523973568926E-008   7.1628945032571401E-007   3.2286562315070731E-002
 chl2c          24   3.7348402796863071E-002   3.7348402796863071E-002  0.57597492500000003        1.3253084826300457E-005   8.3564075044054634E-016
 chl          24   2.7086772192263657E-008   7.2524579804892490E-007   3.7348402796863071E-002
 chl2c          25   4.5426679235459781E-002   4.5426679235459781E-002  0.31406487500000002        6.6110773331351584E-006   3.0983021466556776E-009
 chl          25   3.2538379907297225E-008   7.1628348043318930E-007   4.5426679235459781E-002
 chl2c          26   4.7955660680174553E-002   4.7955660680174553E-002  0.49427735000000000        6.6110773331351584E-006   3.3092119019652982E-019
 chl          26   3.4349154205122251E-008   7.1626902263328852E-007   4.7955660680174553E-002
 chl2c          27   4.5333133499525620E-002   4.5333133499525620E-002  0.30964730000000001        6.6110773331351584E-006   4.1229391523639433E-018
 chl          27   3.2470719224610499E-008   7.1626902263330821E-007   4.5333133499525620E-002
 chl2c          28   3.1209236063453518E-002   3.1209236063453518E-002  0.28776342500000002        9.0250567294076865E-006   4.0973425258769918E-018
 chl          28   2.2354209012302045E-008   7.1626902263330811E-007   3.1209236063453518E-002
 chl2c          29   3.7743217595736761E-002   3.7743217595736761E-002  0.68676297499999994        1.3253084826300457E-005   8.5492496214394732E-016
 chl          29   2.7373493393911072E-008   7.2525595690079727E-007   3.7743217595736761E-002
 chl2c          30   2.5380056985171612E-002   2.5380056985171612E-002  0.38930277499999999        7.4330202612462184E-006   5.2232319090936473E-016
 chl          30   1.8178948611214647E-008   7.1626902263599182E-007   2.5380056985171612E-002
 chl2c          31   3.7576959810037038E-002   3.7576959810037038E-002  0.63559385000000002        1.3253084826300457E-005   8.6221812396733313E-016
 chl          31   2.7252532205731239E-008   7.2524579805021695E-007   3.7576959810037038E-002
 chl2c          32   9.8878187096581638E-002   2.0893126428578448E-002  0.24722667500000001        1.3253084826300457E-005   1.0919422774538301E-006
 chl          32   7.1216113082619058E-008   7.2024088602127194E-007   9.8878187096581638E-002
 chl2c          33  0.46508561705695983        3.7458922634011876E-002  0.60343137499999999        1.3253084826300457E-005   1.3442558379789293E-005
 chl          33   3.4946971277621398E-007   7.5140941787802872E-007  0.46508561705695983     
 chl2c          34   2.5350269098008315E-002   2.5350269098008315E-002  0.38241020000000003        7.4330202612462184E-006   5.0705834887809898E-016
 chl          34   1.8157612470387801E-008   7.1626902263591294E-007   2.5350269098008315E-002
 chl2c          35   2.5740370148566064E-002   2.5740370148566064E-002  0.49574644999999995        7.4330202612462184E-006   5.0985299323261053E-016
 chl          35   1.8437029768600414E-008   7.1626902263592734E-007   2.5740370148566064E-002
 chl2c          36   3.7770393924465726E-002   3.7770393924465726E-002  0.69587337500000002        1.3253084826300457E-005   7.0074387385375011E-016
 chl          36   2.7392819484480781E-008   7.2524579805182059E-007   3.7770393924465726E-002
 chl2c          37   2.1353674699533250E-002   2.1353674699533250E-002  0.33194060000000003        1.3253084826300457E-005   5.0585371375838081E-016
 chl          37   1.5294975706719770E-008   7.1626902263590670E-007   2.1353674699533250E-002
 chl2c          38   2.1543295686358745E-002   2.1543295686358745E-002  0.38455722500000000        1.3253084826300457E-005   5.2300005483386452E-016
 chl          38   1.5430795345626433E-008   7.1626902263599532E-007   2.1543295686358745E-002
 chl2c          39   2.5670077108751441E-002   2.5670077108751441E-002  0.47091117500000002        7.4330202612462184E-006   5.1521324788823814E-016
 chl          39   1.8386681041674996E-008   7.1626902263595498E-007   2.5670077108751441E-002
 chl2c          40  0.34200230629312683        3.7687445774703773E-002  0.66875547499999999        1.3253084826300457E-005   4.6383504587182848E-006
 chl          40   2.5322436211715147E-007   7.4041711841590724E-007  0.34200230629312683     
 chl2c          41  0.34983155286373563        2.5582381488167241E-002  0.44304987499999998        7.4330202612462184E-006   6.1793904238714793E-006
 chl          41   2.5445757925153636E-007   7.2737172267205757E-007  0.34983155286373563     
 chl2c          42  0.44764497906699435        3.7949995630725070E-002  0.76234377499999995        1.3253084826300457E-005   7.1858223589209466E-006
 chl          42   3.3416682278430184E-007   7.4649965577809059E-007  0.44764497906699435     
 chl2c          43  0.23992539161067120        2.1185090152268007E-002  0.29539925000000000        1.3253084826300457E-005   8.4661158908922094E-006
 chl          43   1.7518262271583871E-007   7.3015457655315168E-007  0.23992539161067120     
 chl2c          44   3.7536352708156646E-002   3.7536352708156646E-002  0.62417262500000004        1.3253084826300457E-005   8.3692557630702861E-016
 chl          44   2.7223082084050541E-008   7.2524579827210993E-007   3.7536352708156646E-002
 chl2c          45   4.6544927192009838E-002   4.6544927192009838E-002  0.37662252499999999        6.6110773331351584E-006   4.4071074336993392E-019
 chl          45   3.3338689508358492E-008   7.1626902263328915E-007   4.6544927192009838E-002
 chl2c          46   3.7083195475449568E-002   3.7083195475449568E-002  0.51876034999999998        1.3253084826300457E-005   8.6212789622724802E-016
 chl          46   2.6894431746380387E-008   7.2524579938601797E-007   3.7083195475449568E-002
 chl2c          47   3.7519784612651236E-002   3.7519784612651236E-002  0.61962282499999999        1.3253084826300457E-005   8.6358290303398743E-016
 chl          47   2.7211066134031492E-008   7.2524579804907081E-007   3.7519784612651236E-002
 chl2c          48  0.32171757246185073        3.7823212136301673E-002  0.71424949999999998        1.3253084826300457E-005   3.8791513384010179E-006
 chl          48   2.3768052555340950E-007   7.3878627062434913E-007  0.32171757246185073     
 chl2c          49   3.7152990741888416E-002   3.7152990741888416E-002  0.53276120000000005        1.3253084826300457E-005   8.5208883952341848E-016
 chl          49   2.6945050420508375E-008   7.2524579804901088E-007   3.7152990741888416E-002
 chl2c          50  0.25009643586814362        2.1533072915600981E-002  0.38132569999999999        1.3253084826300457E-005   4.8157049133860715E-006
 chl          50   1.8226805185991425E-007   7.2879108103727639E-007  0.25009643586814362     
 chl2c          51   2.0700971146093840E-002   2.0700971146093840E-002  0.22275920000000002        1.3253084826300457E-005   5.2493929466105332E-016
 chl          51   1.4827464370428783E-008   7.1626902263600538E-007   2.0700971146093840E-002
 chl2c          52  0.23236614242183345        3.7581825176985564E-002  0.63698869999999996        1.3253084826300457E-005   2.4240494074885171E-006
 chl          52   1.7063709004946149E-007   7.3434575395106348E-007  0.23236614242183345     
 chl2c          53  0.43584772467007388        3.7925801262726190E-002  0.75269794999999995        1.3253084826300457E-005   6.8610167254005505E-006
 chl          53   3.2505218747968461E-007   7.4579301228597948E-007  0.43584772467007388     
 chl2c          54   3.7082433371327092E-002   3.7082433371327092E-002  0.51861124999999997        1.3253084826300457E-005   8.3673405121477297E-016
 chl          54   2.6893878983984414E-008   7.2524579804893062E-007   3.7082433371327092E-002
 chl2c          55  0.40616320528811084        3.7357235588660491E-002  0.57808280000000001        1.3253084826300457E-005   9.0500760524947121E-006
 chl          55   3.0327152827161035E-007   7.4667405693847979E-007  0.40616320528811084     
 chl2c          56   3.7507394187257688E-002   3.7507394187257688E-002  0.61626080000000005        1.3253084826300457E-005   7.0074387385375011E-016
 chl          56   2.7202080030181918E-008   7.2524579805182059E-007   3.7507394187257688E-002
 chl2c          57   3.7727617852646313E-002   3.7727617852646313E-002  0.68163462500000005        1.3253084826300457E-005   8.6885440718495016E-016
 chl          57   2.7361796318033901E-008   7.2524579804909876E-007   3.7727617852646313E-002
 chl2c          58  0.49377290494193637        3.7765358178394853E-002  0.69416802499999997        1.3253084826300457E-005   1.1334221630224834E-005
 chl          58   3.7108612604105389E-007   7.5153197416672866E-007  0.49377290494193637     
 chl2c          59  0.42792118104218968        3.7173699120809672E-002  0.53705127500000005        1.3253084826300457E-005   1.3954747683164004E-005
 chl          59   3.2090023638219760E-007   7.4990500727413011E-007  0.42792118104218968     
 chl2c          60  0.48953981250316358        3.7607757740906807E-002  0.64452155000000000        1.3253084826300457E-005   1.3490620224170338E-005
 chl          60   3.6838190495933236E-007   7.5250652868391935E-007  0.48953981250316358     
 chl2c          61   3.7805373434125003E-002   3.7805373434125003E-002  0.70794139999999994        1.3253084826300457E-005   8.5648358876074528E-016
 chl          61   2.7418188226773727E-008   7.2524579804903375E-007   3.7805373434125003E-002
 chl2c          62  0.34041183245390766        3.7956103087269030E-002  0.76481592499999995        1.3253084826300457E-005   4.0650789859031139E-006
 chl          62   2.5173982886705375E-007   7.3951550700324064E-007  0.34041183245390766     
 chl2c          63  0.50347028570205188        3.7855601011927406E-002  0.72597904999999996        1.3253084826300457E-005   1.0885234572539554E-005
 chl          63   3.7841713120453505E-007   7.5161760674090327E-007  0.50347028570205188     
 chl2c          64   2.5708982294816416E-002   2.5708982294816416E-002  0.48435739999999999        7.4330202612462184E-006   4.9929535722578425E-016
 chl          64   1.8414547621271106E-008   7.1626902263587260E-007   2.5708982294816416E-002
 chl2c          65  0.52620516252644978        3.7953597170552002E-002  0.76379975000000000        1.3253084826300457E-005   1.1209469393366883E-005
 chl          65   3.9607424096902348E-007   7.5269926860345984E-007  0.52620516252644978     
 chl2c          66   3.1840477731474713E-002   3.1840477731474713E-002  0.35213202499999996        9.0250567294076865E-006   3.6245299477131516E-019
 chl          66   2.2806347864900387E-008   7.1626902263328873E-007   3.1840477731474713E-002
 chl2c          67   3.7937587124568600E-002   3.7937587124568600E-002  0.75736760000000003        1.3253084826300457E-005   8.5147162739949420E-016
 chl          67   2.7514075650211506E-008   7.2524579804900749E-007   3.7937587124568600E-002
 chl2c          68  0.50975772164650401        3.7855407263856986E-002  0.72590779999999999        1.3253084826300457E-005   1.1344278002146033E-005
 chl          68   3.8342113561194744E-007   7.5216346772248449E-007  0.50975772164650401     
 chl2c          69   2.1732330561541505E-002   2.1732330561541505E-002  0.45524217500000003        1.3253084826300457E-005   5.0841162001386001E-016
 chl          69   1.5566195170934883E-008   7.1626902263678570E-007   2.1732330561541505E-002
 chl2c          70   3.2658010878182209E-002   3.2658010878182209E-002  0.48694062500000002        9.0250567294076865E-006   5.0646117168432856E-018
 chl          70   2.3391921532863672E-008   7.1626902263331298E-007   3.2658010878182209E-002
 chl2c          71   4.3481058864416305E-002   4.3481058864416305E-002  0.23986107500000001        6.6110773331351584E-006   6.4839741507489421E-009
 chl          71   3.1145452230300136E-008   7.1629930465627905E-007   4.3481058864416305E-002
 chl2c          72  0.13538745058512941        3.7549776402781669E-002  0.62790522500000001        1.3253084826300457E-005   1.1437670497433408E-006
 chl          72   9.8826407725341029E-008   7.2995249779964362E-007  0.13538745058512941     
 chl2c          73   3.1852614277819484E-002   3.1852614277819484E-002  0.35362212500000001        9.0250567294076865E-006   4.5515304693137002E-019
 chl          73   2.2815040897088914E-008   7.1626902263328915E-007   3.1852614277819484E-002
 chl2c          74  0.49417926899064762        3.7616827685877569E-002  0.64719590000000005        1.3253084826300457E-005   1.3850601243495123E-005
 chl          74   3.7205424612001652E-007   7.5287303508285712E-007  0.49417926899064762     
 chl2c          75   3.7826830779512356E-002   3.7826830779512356E-002  0.71554212500000003        1.3253084826300457E-005   7.0074387385375011E-016
 chl          75   2.7433750076458609E-008   7.2524579805182059E-007   3.7826830779512356E-002
 chl2c          76  0.26485924071946682        3.7257729557919804E-002  0.55513977500000000        1.3253084826300457E-005   3.3564991613889997E-006
 chl          76   1.9511979932183880E-007   7.3669243629866579E-007  0.26485924071946682     
 chl2c          77  0.42005610413150002        3.7138172437479272E-002  0.52973029999999999        1.3253084826300457E-005   1.3444499462731099E-005
 chl          77   3.1477312274675499E-007   7.4935971564458970E-007  0.42005610413150002     
 chl2c          78   4.7515248899399322E-002   4.7515248899399322E-002  0.45117492500000000        6.6110773331351584E-006   5.2277307316516850E-018
 chl          78   3.4033700889351391E-008   7.1626902263331382E-007   4.7515248899399322E-002
 prod   1.6457094773789004E-009   9.3842136385851145        10.000000000000000     
 chl2c           1  0.47946677136220550        3.7477407714772232E-002  0.60826437499999997        1.0032506232873034E-005   1.1358541146575947E-005
 chl           1   8.2675653382370204E-010   1.7243249860148119E-009  0.47946677136220550     
 chl2c           2   3.2640259920490348E-002   3.2640259920490348E-002  0.48302390000000001        6.8695599464640424E-006   2.8198476159394025E-019
 chl           2   6.3067949539977510E-012   1.9322134595008474E-010   3.2640259920490348E-002
 chl2c           3   3.7922212503796585E-002   3.7922212503796585E-002  0.75128689999999998        1.0032506232873034E-005   7.3620642273536596E-016
 chl           3   6.4279123404409223E-011   1.6950256633358066E-009   3.7922212503796585E-002
 chl2c           4  0.55753510979243304        3.7976509103863923E-002  0.77318742499999993        1.0032506232873034E-005   1.0027261041668498E-005
 chl           4   9.6307435987142599E-010   1.7273788555306819E-009  0.55753510979243304     
 chl2c           5   2.5710500362372445E-002   2.5710500362372445E-002  0.48489679999999996        5.6870543038316289E-006   5.2046121020027794E-016
 chl           5   4.9678174850862077E-012   1.9322134595080283E-010   2.5710500362372445E-002
 chl2c           6   3.1261039902252048E-002   3.1261039902252048E-002  0.29222855000000003        6.8695599464640424E-006   3.9708925395830766E-008
 chl           6   6.0415862303625495E-012   1.9326248420569379E-010   3.1261039902252048E-002
 chl2c           7   4.3064391842467263E-002   4.3064391842467263E-002  0.22770740000000000        5.0717795364891359E-006   2.7515982109745827E-019
 chl           7   8.3209922842805450E-012   1.9322210132954741E-010   4.3064391842467263E-002
 chl2c           8   4.7969800906495587E-002   4.7969800906495587E-002  0.49578364999999996        5.0717795364891359E-006   4.4572773494971392E-009
 chl           8   9.2690966719082819E-012   1.9322774947463153E-010   4.7969800906495587E-002
 chl2c           9  0.25467525869566027        2.4803669054600401E-002  0.28700202499999999        5.6870543038316289E-006   6.4293465123334402E-006
 chl           9   4.9742303819374295E-011   1.9531659288041362E-010  0.25467525869566027     
 chl2c          10   2.5387016219684602E-002   2.5387016219684602E-002  0.39094662499999999        5.6870543038316289E-006   5.2636511512632503E-016
 chl          10   4.9053134436440651E-012   1.9322134595087151E-010   2.5387016219684602E-002
 chl2c          11   2.1820572217820047E-002   2.1820572217820047E-002  0.49737575000000001        1.0032506232873034E-005   5.2731359882987693E-016
 chl          11   4.2162003333441319E-012   1.9322134595081418E-010   2.1820572217820047E-002
 chl2c          12   4.5290941298723353E-002   4.5290941298723353E-002  0.30768942500000002        5.0717795364891359E-006   2.8950354201547099E-019
 chl          12   8.7511766370857473E-012   1.9322134595008786E-010   4.5290941298723353E-002
 chl2c          13  0.40488449285863254        3.7935816987997487E-002  0.75666275000000005        1.0032506232873034E-005   4.3686167607713783E-006
 chl          13   6.9144279892422163E-010   1.7077532262161555E-009  0.40488449285863254     
 chl2c          14   4.6856526101924839E-002   4.6856526101924839E-002  0.39804095000000000        5.0717795364891359E-006   3.6088333506652874E-018
 chl          14   9.0536810399594306E-012   1.9322134595008975E-010   4.6856526101924839E-002
 chl2c          15   2.0954299823745293E-002   2.0954299823745293E-002  0.25607262500000000        1.0032506232873034E-005   5.3000622520383692E-016
 chl          15   4.0488180154035443E-012   1.9322134595093686E-010   2.0954299823745293E-002
 chl2c          16  0.47805514723760123        3.7823443882273475E-002  0.71433214999999994        1.0032506232873034E-005   7.2499695909788745E-006
 chl          16   8.2088947974877708E-010   1.7171438995944575E-009  0.47805514723760123     
 chl2c          17   3.7542254757581245E-002   3.7542254757581245E-002  0.62580860000000005        1.0032506232873034E-005   7.3620642273536596E-016
 chl          17   6.3635085273590995E-011   1.6950256633358066E-009   3.7542254757581245E-002
 chl2c          18   2.5694475239060960E-002   2.5694475239060960E-002  0.47925950000000000        5.6870543038316289E-006   5.2845142732979357E-016
 chl          18   4.9647210891912751E-012   1.9322134595081607E-010   2.5694475239060960E-002
 chl2c          19  0.49177134637109560        3.7570220750293731E-002  0.63367130000000005        1.0032506232873034E-005   1.1016013187613105E-005
 chl          19   8.4824636574189476E-010   1.7248796051281108E-009  0.49177134637109560     
 chl2c          20  0.21210887449194393        3.7020645196759419E-002  0.50678202500000002        1.0032506232873034E-005   1.8298644427665712E-006
 chl          20   3.6043884276515162E-010   1.6993105245053826E-009  0.21210887449194393     
 chl2c          21  0.56882248459076290        3.7838475073783531E-002  0.71973185000000006        1.0032506232873034E-005   1.3608514690528027E-005
 chl          21   9.8409593418818006E-010   1.7300580776025126E-009  0.56882248459076290     
 chl2c          22  0.41003263418880992        3.7613353106285476E-002  0.64616892500000001        1.0032506232873034E-005   5.6283513072411323E-006
 chl          22   7.0479802281657000E-010   1.7188827523714317E-009  0.41003263418880992     
 chl2c          23   3.2286562315070731E-002   3.2286562315070731E-002  0.41564179999999995        6.8695599464640424E-006   5.0664288818887530E-009
 chl          23   6.2386473779591970E-012   1.9322736552374048E-010   3.2286562315070731E-002
 chl2c          24   3.7348402796863071E-002   3.7348402796863071E-002  0.57597492500000003        1.0032506232873034E-005   8.7089548751468715E-016
 chl          24   6.3306501225233825E-011   1.6950256633344172E-009   3.7348402796863071E-002
 chl2c          25   4.5426679235459781E-002   4.5426679235459781E-002  0.31406487500000002        5.0717795364891359E-006   3.7361316151726341E-009
 chl          25   8.7776020825835859E-012   1.9322570415254665E-010   4.5426679235459781E-002
 chl2c          26   4.7955660680174553E-002   4.7955660680174553E-002  0.49427735000000000        5.0717795364891359E-006   2.7824024582135322E-019
 chl          26   9.2660573025488838E-012   1.9322134595008474E-010   4.7955660680174553E-002
 chl2c          27   4.5333133499525620E-002   4.5333133499525620E-002  0.30964730000000001        5.0717795364891359E-006   3.5776024823813268E-018
 chl          27   8.7593290709134389E-012   1.9322134595008967E-010   4.5333133499525620E-002
 chl2c          28   3.1209236063453518E-002   3.1209236063453518E-002  0.28776342500000002        6.8695599464640424E-006   3.5553736112008687E-018
 chl          28   6.0302905982545662E-012   1.9322134595008965E-010   3.1209236063453518E-002
 chl2c          29   3.7743217595736761E-002   3.7743217595736761E-002  0.68676297499999994        1.0032506232873034E-005   8.8540370271328469E-016
 chl          29   6.3975789961525950E-011   1.6950274522634303E-009   3.7743217595736761E-002
 chl2c          30   2.5380056985171612E-002   2.5380056985171612E-002  0.38930277499999999        5.6870543038316289E-006   5.3074649910356808E-016
 chl          30   4.9039687709833667E-012   1.9322134595081987E-010   2.5380056985171612E-002
 chl2c          31   3.7576959810037038E-002   3.7576959810037038E-002  0.63559385000000002        1.0032506232873034E-005   8.9084374756543090E-016
 chl          31   6.3693911228110141E-011   1.6950256633347199E-009   3.7576959810037038E-002
 chl2c          32   2.0893126428578448E-002   2.0893126428578448E-002  0.24722667500000001        1.0032506232873034E-005   5.3112745963820145E-016
 chl          32   4.0481971693326985E-012   1.9375736719782701E-010   2.0893126428578448E-002
 chl2c          33  0.48811727343774319        3.7458922634011876E-002  0.60343137499999999        1.0032506232873034E-005   1.2812948685654231E-005
 chl          33   8.4248040729989175E-010   1.7259794994887549E-009  0.48811727343774319     
 chl2c          34   2.5350269098008315E-002   2.5350269098008315E-002  0.38241020000000003        5.6870543038316289E-006   5.1965660144347826E-016
 chl          34   4.8982131153321777E-012   1.9322134595080151E-010   2.5350269098008315E-002
 chl2c          35   2.5740370148566064E-002   2.5740370148566064E-002  0.49574644999999995        5.6870543038316289E-006   5.2170037549936987E-016
 chl          35   4.9735889653778537E-012   1.9322134595080485E-010   2.5740370148566064E-002
 chl2c          36   3.7770393924465726E-002   3.7770393924465726E-002  0.69587337500000002        1.0032506232873034E-005   7.3620642273536596E-016
 chl          36   6.4021787016272239E-011   1.6950256633358066E-009   3.7770393924465726E-002
 chl2c          37   2.1353674699533250E-002   2.1353674699533250E-002  0.33194060000000003        1.0032506232873034E-005   5.1877371196302235E-016
 chl          37   4.1259857664393607E-012   1.9322134595080004E-010   2.1353674699533250E-002
 chl2c          38   2.1543295686358745E-002   2.1543295686358745E-002  0.38455722500000000        1.0032506232873034E-005   5.3123421114250014E-016
 chl          38   4.1626245887347465E-012   1.9322134595082069E-010   2.1543295686358745E-002
 chl2c          39   2.5670077108751441E-002   2.5670077108751441E-002  0.47091117500000002        5.6870543038316289E-006   5.2560327722494896E-016
 chl          39   4.9600068496140643E-012   1.9322134595081131E-010   2.5670077108751441E-002
 chl2c          40  0.45671468743626781        3.7687445774703773E-002  0.66875547499999999        1.0032506232873034E-005   7.2255741591668848E-006
 chl          40   7.8395743017897208E-010   1.7165146025402770E-009  0.45671468743626781     
 chl2c          41  0.37821496936138710        2.5582381488167241E-002  0.44304987499999998        5.6870543038316289E-006   7.3491959762406256E-006
 chl          41   7.4143506069726566E-011   1.9603535575262206E-010  0.37821496936138710     
 chl2c          42  0.55031049393144771        3.7949995630725070E-002  0.76234377499999995        1.0032506232873034E-005   9.9250810418239888E-006
 chl          42   9.4837539949722470E-010   1.7233460200294926E-009  0.55031049393144771     
 chl2c          43  0.25011347291682201        2.1185090152268007E-002  0.29539925000000000        1.0032506232873034E-005   8.1839712123018750E-006
 chl          43   4.9177516863535322E-011   1.9662082290101120E-010  0.25011347291682201     
 chl2c          44  0.13461920674344591        3.7536352708156646E-002  0.62417262500000004        1.0032506232873034E-005   8.6097610754766359E-007
 chl          44   2.2849552243892669E-010   1.6973471168522634E-009  0.13461920674344591     
 chl2c          45   4.6544927192009838E-002   4.6544927192009838E-002  0.37662252499999999        5.0717795364891359E-006   3.7056362751554908E-019
 chl          45   8.9934734791888463E-012   1.9322134595008489E-010   4.6544927192009838E-002
 chl2c          46   3.7083195475449568E-002   3.7083195475449568E-002  0.51876034999999998        1.0032506232873034E-005   8.9077660111722610E-016
 chl          46   6.2856968016255932E-011   1.6950256635210831E-009   3.7083195475449568E-002
 chl2c          47   3.7519784612651236E-002   3.7519784612651236E-002  0.61962282499999999        1.0032506232873034E-005   8.9185892767230069E-016
 chl          47   6.3596997801229899E-011   1.6950256633345847E-009   3.7519784612651236E-002
 chl2c          48  0.47424868814087495        3.7823212136301673E-002  0.71424949999999998        1.0032506232873034E-005   7.0798297620816232E-006
 chl          48   8.1366692312827421E-010   1.7156967293214221E-009  0.47424868814087495     
 chl2c          49   3.7152990741888416E-002   3.7152990741888416E-002  0.53276120000000005        1.0032506232873034E-005   8.8328131148699658E-016
 chl          49   6.2975272777130534E-011   1.6950256633345158E-009   3.7152990741888416E-002
 chl2c          50  0.19688502394987539        2.1533072915600981E-002  0.38132569999999999        1.0032506232873034E-005   2.0418860219342082E-006
 chl          50   3.8550162706575587E-011   1.9580038102029541E-010  0.19688502394987539     
 chl2c          51   2.0700971146093840E-002   2.0700971146093840E-002  0.22275920000000002        1.0032506232873034E-005   5.3262975746053308E-016
 chl          51   3.9998695073374036E-012   1.9322134595082302E-010   2.0700971146093840E-002
 chl2c          52  0.39194606538725890        3.7581825176985564E-002  0.63698869999999996        1.0032506232873034E-005   5.1108816761172832E-006
 chl          52   6.7035942351040868E-010   1.7103358923837286E-009  0.39194606538725890     
 chl2c          53  0.52986880440437145        3.7925801262726190E-002  0.75269794999999995        1.0032506232873034E-005   8.9783500188050430E-006
 chl          53   9.1249880338021736E-010   1.7221221475870096E-009  0.52986880440437145     
 chl2c          54   3.7082433371327092E-002   3.7082433371327092E-002  0.51861124999999997        1.0032506232873034E-005   8.7172287664241725E-016
 chl          54   6.2855676223288296E-011   1.6950256633344242E-009   3.7082433371327092E-002
 chl2c          55  0.38262829579832236        3.7357235588660491E-002  0.57808280000000001        1.0032506232873034E-005   5.6767646666694042E-006
 chl          55   6.5755352441558124E-010   1.7185177668150498E-009  0.38262829579832236     
 chl2c          56   3.7507394187257688E-002   3.7507394187257688E-002  0.61626080000000005        1.0032506232873034E-005   7.3620642273536596E-016
 chl          56   6.3575995712254035E-011   1.6950256633358066E-009   3.7507394187257688E-002
 chl2c          57   3.7727617852646313E-002   3.7727617852646313E-002  0.68163462500000005        1.0032506232873034E-005   8.9577179164202761E-016
 chl          57   6.3949280476716705E-011   1.6950256633346157E-009   3.7727617852646313E-002
 chl2c          58  0.52998660216240767        3.7765358178394853E-002  0.69416802499999997        1.0032506232873034E-005   1.1240481719080235E-005
 chl          58   9.1508367031795946E-010   1.7266166098997794E-009  0.52998660216240767     
 chl2c          59  0.44954566938035484        3.7173699120809672E-002  0.53705127500000005        1.0032506232873034E-005   1.3839905921993279E-005
 chl          59   7.7513153157600973E-010   1.7242553635194312E-009  0.44954566938035484     
 chl2c          60  0.51899311667832859        3.7607757740906807E-002  0.64452155000000000        1.0032506232873034E-005   1.3367074690476413E-005
 chl          60   8.9656970198614817E-010   1.7275175203177910E-009  0.51899311667832859     
 chl2c          61   3.7805373434125003E-002   3.7805373434125003E-002  0.70794139999999994        1.0032506232873034E-005   8.8656844044792529E-016
 chl          61   6.4081078182787802E-011   1.6950256633345421E-009   3.7805373434125003E-002
 chl2c          62  0.49935793627610475        3.7956103087269030E-002  0.76481592499999995        1.0032506232873034E-005   7.2169304784585677E-006
 chl          62   8.5723533604878740E-010   1.7166751017146251E-009  0.49935793627610475     
 chl2c          63  0.53256975829422160        3.7855601011927406E-002  0.72597904999999996        1.0032506232873034E-005   1.0027731522923998E-005
 chl          63   9.1939894019124766E-010   1.7263446259810340E-009  0.53256975829422160     
 chl2c          64   2.5708982294816416E-002   2.5708982294816416E-002  0.48435739999999999        5.6870543038316289E-006   5.1394648543764380E-016
 chl          64   4.9675241620295105E-012   1.9322134595079205E-010   2.5708982294816416E-002
 chl2c          65  0.57100837320063946        3.7953597170552002E-002  0.76379975000000000        1.0032506232873034E-005   1.1347856267535636E-005
 chl          65   9.8685284582633453E-010   1.7282633532933793E-009  0.57100837320063946     
 chl2c          66   3.1840477731474713E-002   3.1840477731474713E-002  0.35213202499999996        6.8695599464640424E-006   3.0475512725909051E-019
 chl          66   6.1522599629692463E-012   1.9322134595008479E-010   3.1840477731474713E-002
 chl2c          67   3.7937587124568600E-002   3.7937587124568600E-002  0.75736760000000003        1.0032506232873034E-005   8.8281891121151997E-016
 chl          67   6.4305183781132748E-011   1.6950256633345123E-009   3.7937587124568600E-002
 chl2c          68  0.54914399791237301        3.7855407263856986E-002  0.72590779999999999        1.0032506232873034E-005   1.1312375493635078E-005
 chl          68   9.4861924018372437E-010   1.7274508030498328E-009  0.54914399791237301     
 chl2c          69   2.1732330561541505E-002   2.1732330561541505E-002  0.45524217500000003        1.0032506232873034E-005   5.2064704691078207E-016
 chl          69   4.1991501617508547E-012   1.9322134595089661E-010   2.1732330561541505E-002
 chl2c          70   3.2658010878182209E-002   3.2658010878182209E-002  0.48694062500000002        6.8695599464640424E-006   4.3955341988768876E-018
 chl          70   6.3102248179350763E-012   1.9322134595009089E-010   3.2658010878182209E-002
 chl2c          71   4.3481058864416305E-002   4.3481058864416305E-002  0.23986107500000001        5.0717795364891359E-006   5.2579371034874651E-009
 chl          71   8.4017929618343510E-012   1.9322880309867856E-010   4.3481058864416305E-002
 chl2c          72  0.33754766216476684        3.7549776402781669E-002  0.62790522500000001        1.0032506232873034E-005   3.6616388014040634E-006
 chl          72   5.7573554912010001E-010   1.7056422356113572E-009  0.33754766216476684     
 chl2c          73   3.1852614277819484E-002   3.1852614277819484E-002  0.35362212500000001        6.8695599464640424E-006   3.8270877376941090E-019
 chl          73   6.1546050027891724E-012   1.9322134595008489E-010   3.1852614277819484E-002
 chl2c          74  0.52270575915059758        3.7616827685877569E-002  0.64719590000000005        1.0032506232873034E-005   1.3631307872874556E-005
 chl          74   9.0318021300678848E-010   1.7278941301019257E-009  0.52270575915059758     
 chl2c          75   3.7826830779512356E-002   3.7826830779512356E-002  0.71554212500000003        1.0032506232873034E-005   7.3620642273536596E-016
 chl          75   6.4117448933934236E-011   1.6950256633358066E-009   3.7826830779512356E-002
 chl2c          76  0.12058037798180989        3.7257729557919804E-002  0.55513977500000000        1.0032506232873034E-005   7.7269710099393376E-007
 chl          76   2.0553796610498638E-010   1.7045722491929221E-009  0.12058037798180989     
 chl2c          77  0.44195353260250320        3.7138172437479272E-002  0.52973029999999999        1.0032506232873034E-005   1.3379235068328025E-005
 chl          77   7.6177104304762519E-010   1.7236451048639283E-009  0.44195353260250320     
 chl2c          78   4.7515248899399322E-002   4.7515248899399322E-002  0.45117492500000000        5.0717795364891359E-006   4.5372492160853161E-018
 chl          78   9.1809603454955245E-012   1.9322134595009115E-010   4.7515248899399322E-002
 prod   1.3835886993350318E-009   7.0888406545315421        10.000000000000000     
 chl2c           1  0.50534326876719371        3.7477407714772232E-002  0.60826437499999997        7.6086768427737402E-006   1.1361968068754879E-005
 chl           1   6.2099676581928802E-013   1.2288612596626366E-012  0.50534326876719371     
 chl2c           2   3.2640259920490348E-002   3.2640259920490348E-002  0.48302390000000001        5.2356297934006994E-006   2.6084196441246812E-019
 chl           2   1.1347518803548318E-015   3.4765405763281819E-014   3.2640259920490348E-002
 chl2c           3   3.7922212503796585E-002   3.7922212503796585E-002  0.75128689999999998        7.6086768427737402E-006   7.6822561663376699E-016
 chl           3   4.6343835890483436E-014   1.2220762669330994E-012   3.7922212503796585E-002
 chl2c           4  0.57673814124601641        3.7976509103863923E-002  0.77318742499999993        7.6086768427737402E-006   8.6355926734457053E-006
 chl           4   7.0908424870304459E-013   1.2294734785029138E-012  0.57673814124601641     
 chl2c           5   2.5710500362372445E-002   2.5710500362372445E-002  0.48489679999999996        4.3580206719179768E-006   5.2702757773256236E-016
 chl           5   8.9383597747823186E-016   3.4765405763412101E-014   2.5710500362372445E-002
 chl2c           6   3.1261039902252048E-002   3.1261039902252048E-002  0.29222855000000003        5.2356297934006994E-006   5.1679236184273147E-008
 chl           6   1.0870862505427538E-015   3.4774474999612539E-014   3.1261039902252048E-002
 chl2c           7   4.3064391842467263E-002   4.3064391842467263E-002  0.22770740000000000        3.8941372740717649E-006   2.5452851133966710E-019
 chl           7   1.4971549338617648E-015   3.4765495803086424E-014   4.3064391842467263E-002
 chl2c           8   4.7969800906495587E-002   4.7969800906495587E-002  0.49578364999999996        3.8941372740717649E-006   3.7509491002908858E-009
 chl           8   1.6677404993111582E-015   3.4766466981215460E-014   4.7969800906495587E-002
 chl2c           9  0.25113885755960991        2.4803669054600401E-002  0.28700202499999999        4.3580206719179768E-006   4.3793486496209001E-006
 chl           9   8.8146677194388735E-015   3.5098780830229101E-014  0.25113885755960991     
 chl2c          10   2.5387016219684602E-002   2.5387016219684602E-002  0.39094662499999999        4.3580206719179768E-006   5.3172008410821323E-016
 chl          10   8.8258991999985616E-016   3.4765405763419845E-014   2.5387016219684602E-002
 chl2c          11   2.1820572217820047E-002   2.1820572217820047E-002  0.49737575000000001        7.6086768427737402E-006   5.3247208605925281E-016
 chl          11   7.5860104714239057E-016   3.4765405763413913E-014   2.1820572217820047E-002
 chl2c          12   4.5290941298723353E-002   4.5290941298723353E-002  0.30768942500000002        3.8941372740717649E-006   3.4842531224570199E-010
 chl          12   1.5745592097983552E-015   3.4765433542507061E-014   4.5290941298723353E-002
 chl2c          13  0.53766656654656808        3.7935816987997487E-002  0.75666275000000005        7.6086768427737402E-006   7.0673725181997430E-006
 chl          13   6.5917257450138263E-013   1.2259876576206841E-012  0.53766656654656808     
 chl2c          14   4.6856526101924839E-002   4.6856526101924839E-002  0.39804095000000000        3.8941372740717649E-006   3.4227043105285621E-018
 chl          14   1.6289861425912637E-015   3.4765405763282690E-014   4.6856526101924839E-002
 chl2c          15   2.0954299823745293E-002   2.0954299823745293E-002  0.25607262500000000        7.6086768427737402E-006   5.3460428827271575E-016
 chl          15   7.2848473586101268E-016   3.4765405763427033E-014   2.0954299823745293E-002
 chl2c          16  0.54944091028139785        3.7823443882273475E-002  0.71433214999999994        7.6086768427737402E-006   9.0552980627067104E-006
 chl          16   6.7455062808828018E-013   1.2277036810797488E-012  0.54944091028139785     
 chl2c          17   3.7542254757581245E-002   3.7542254757581245E-002  0.62580860000000005        7.6086768427737402E-006   7.6822561663376699E-016
 chl          17   4.5879498546396281E-014   1.2220762669330994E-012   3.7542254757581245E-002
 chl2c          18   2.5694475239060960E-002   2.5694475239060960E-002  0.47925950000000000        4.3580206719179768E-006   5.3337356161216474E-016
 chl          18   8.9327885756395374E-016   3.4765405763414215E-014   2.5694475239060960E-002
 chl2c          19  0.51437016620530274        3.7570220750293731E-002  0.63367130000000005        7.6086768427737402E-006   1.0393800610611380E-005
 chl          19   6.3213699633181633E-013   1.2289534616584058E-012  0.51437016620530274     
 chl2c          20  0.35449791307755646        3.7020645196759419E-002  0.50678202500000002        7.6086768427737402E-006   4.4880680556184926E-006
 chl          20   4.3388898518479185E-013   1.2239535669420607E-012  0.35449791307755646     
 chl2c          21  0.59574598937269585        3.7838475073783531E-002  0.71973185000000006        7.6086768427737402E-006   1.3156453391232816E-005
 chl          21   7.3285756556993643E-013   1.2301510688164519E-012  0.59574598937269585     
 chl2c          22  0.36156084200334482        3.7613353106285476E-002  0.64616892500000001        7.6086768427737402E-006   3.1229092990642311E-006
 chl          22   4.4367991302549514E-013   1.2271237962804353E-012  0.36156084200334482     
 chl2c          23   3.2286562315070731E-002   3.2286562315070731E-002  0.41564179999999995        5.2356297934006994E-006   5.1677876485195350E-009
 chl          23   1.1224918667805301E-015   3.4766534009617154E-014   3.2286562315070731E-002
 chl2c          24   3.7348402796863071E-002   3.7348402796863071E-002  0.57597492500000003        7.6086768427737402E-006   8.9021808732595505E-016
 chl          24   4.5642596665898084E-014   1.2220762669329369E-012   3.7348402796863071E-002
 chl2c          25   4.5426679235459781E-002   4.5426679235459781E-002  0.31406487500000002        3.8941372740717649E-006   3.8835886423001692E-009
 chl          25   1.5793145567108109E-015   3.4766233924446931E-014   4.5426679235459781E-002
 chl2c          26   4.7955660680174553E-002   4.7955660680174553E-002  0.49427735000000000        3.8941372740717649E-006   2.5737807567455696E-019
 chl          26   1.6671980021925278E-015   3.4765405763281819E-014   4.7955660680174553E-002
 chl2c          27   4.5333133499525620E-002   4.5333133499525620E-002  0.30964730000000001        3.8941372740717649E-006   3.3930763878042624E-018
 chl          27   1.5760247806320711E-015   3.4765405763282678E-014   4.5333133499525620E-002
 chl2c          28   3.1209236063453518E-002   3.1209236063453518E-002  0.28776342500000002        5.2356297934006994E-006   3.3719885116340595E-018
 chl          28   1.0850017553080363E-015   3.4765405763282671E-014   3.1209236063453518E-002
 chl2c          29   3.7743217595736761E-002   3.7743217595736761E-002  0.68676297499999994        7.6086768427737402E-006   9.0194749395238330E-016
 chl          29   4.6125099508190140E-014   1.2220765066251306E-012   3.7743217595736761E-002
 chl2c          30   2.5380056985171612E-002   2.5380056985171612E-002  0.38930277499999999        4.3580206719179768E-006   5.3518983396666317E-016
 chl          30   8.8234797938808198E-016   3.4765405763414828E-014   2.5380056985171612E-002
 chl2c          31   3.7576959810037038E-002   3.7576959810037038E-002  0.63559385000000002        7.6086768427737402E-006   9.0632531155735592E-016
 chl          31   4.5921910767341037E-014   1.2220762669329894E-012   3.7576959810037038E-002
 chl2c          32   2.0893126428578448E-002   2.0893126428578448E-002  0.24722667500000001        7.6086768427737402E-006   5.3549106383960213E-016
 chl          32   7.2770157021919475E-016   3.4829711709580028E-014   2.0893126428578448E-002
 chl2c          33  0.50337097250819096        3.7458922634011876E-002  0.60343137499999999        7.6086768427737402E-006   1.1548696094601855E-005
 chl          33   6.1871244970348341E-013   1.2291381177992252E-012  0.50337097250819096     
 chl2c          34   2.5350269098008315E-002   2.5350269098008315E-002  0.38241020000000003        4.3580206719179768E-006   5.2638645835473307E-016
 chl          34   8.8131239140394066E-016   3.4765405763411893E-014   2.5350269098008315E-002
 chl2c          35   2.5740370148566064E-002   2.5740370148566064E-002  0.49574644999999995        4.3580206719179768E-006   5.2801418938802440E-016
 chl          35   8.9487441271532775E-016   3.4765405763412423E-014   2.5740370148566064E-002
 chl2c          36   3.7770393924465726E-002   3.7770393924465726E-002  0.69587337500000002        7.6086768427737402E-006   7.6822561663376699E-016
 chl          36   4.6158302007803695E-014   1.2220762669330994E-012   3.7770393924465726E-002
 chl2c          37   2.1353674699533250E-002   2.1353674699533250E-002  0.33194060000000003        7.6086768427737402E-006   5.2568250957656918E-016
 chl          37   7.4236916546917091E-016   3.4765405763411653E-014   2.1353674699533250E-002
 chl2c          38   2.1543295686358745E-002   2.1543295686358745E-002  0.38455722500000000        7.6086768427737402E-006   5.3557546102469200E-016
 chl          38   7.4896141601748886E-016   3.4765405763414954E-014   2.1543295686358745E-002
 chl2c          39   2.5670077108751441E-002   2.5670077108751441E-002  0.47091117500000002        4.3580206719179768E-006   5.3111570025691851E-016
 chl          39   8.9243064666385524E-016   3.4765405763413458E-014   2.5670077108751441E-002
 chl2c          40  0.52184903249193548        3.7687445774703773E-002  0.66875547499999999        7.6086768427737402E-006   9.0375462865266671E-006
 chl          40   6.4058066668409377E-013   1.2275210392269782E-012  0.52184903249193548     
 chl2c          41  0.39311865432189513        2.5582381488167241E-002  0.44304987499999998        4.3580206719179768E-006   7.6008712772198815E-006
 chl          41   1.3850708398173630E-014   3.5232895325369967E-014  0.39311865432189513     
 chl2c          42  0.60828293309034787        3.7949995630725070E-002  0.76234377499999995        7.6086768427737402E-006   1.1450998724867929E-005
 chl          42   7.4758464150820320E-013   1.2290080829822739E-012  0.60828293309034787     
 chl2c          43  0.25806964318171410        2.1185090152268007E-002  0.29539925000000000        7.6086768427737402E-006   7.7691237190719572E-006
 chl          43   9.1150725479766999E-015   3.5320204405283427E-014  0.25806964318171410     
 chl2c          44  0.36408893706537815        3.7536352708156646E-002  0.62417262500000004        7.6086768427737402E-006   3.3241317546567879E-006
 chl          44   4.4547696428933555E-013   1.2235388635533929E-012  0.36408893706537815     
 chl2c          45   4.6544927192009838E-002   4.6544927192009838E-002  0.37662252499999999        3.8941372740717649E-006   3.4278345175450467E-019
 chl          45   1.6181532800526327E-015   3.4765405763281845E-014   4.6544927192009838E-002
 chl2c          46   3.7083195475449568E-002   3.7083195475449568E-002  0.51876034999999998        7.6086768427737402E-006   9.0627134287486866E-016
 chl          46   4.5318493093426371E-014   1.2220762669557124E-012   3.7083195475449568E-002
 chl2c          47   3.7519784612651236E-002   3.7519784612651236E-002  0.61962282499999999        7.6086768427737402E-006   9.0714105607679316E-016
 chl          47   4.5852038315558089E-014   1.2220762669329746E-012   3.7519784612651236E-002
 chl2c          48  0.55422558752209949        3.7823212136301673E-002  0.71424949999999998        7.6086768427737402E-006   9.4108917182217911E-006
 chl          48   6.8030632240700603E-013   1.2274899205729637E-012  0.55422558752209949     
 chl2c          49   3.7152990741888416E-002   3.7152990741888416E-002  0.53276120000000005        7.6086768427737402E-006   9.0023654213919104E-016
 chl          49   4.5403788231241795E-014   1.2220762669329593E-012   3.7152990741888416E-002
 chl2c          50   2.1533072915600981E-002   2.1533072915600981E-002  0.38132569999999999        7.6086768427737402E-006   5.2958558605925146E-016
 chl          50   7.5526792891101166E-016   3.5074786207769288E-014   2.1533072915600981E-002
 chl2c          51   2.0700971146093840E-002   2.0700971146093840E-002  0.22275920000000002        7.6086768427737402E-006   5.3667828875521012E-016
 chl          51   7.1967766159070520E-016   3.4765405763415326E-014   2.0700971146093840E-002
 chl2c          52  0.47927379585398039        3.7581825176985564E-002  0.63698869999999996        7.6086768427737402E-006   7.3641363308320699E-006
 chl          52   5.8772887364372744E-013   1.2262904392602968E-012  0.47927379585398039     
 chl2c          53  0.58795359558205318        3.7925801262726190E-002  0.75269794999999995        7.6086768427737402E-006   1.0219564438700313E-005
 chl          53   7.2241658068295114E-013   1.2286965946143834E-012  0.58795359558205318     
 chl2c          54   3.7082433371327092E-002   3.7082433371327092E-002  0.51861124999999997        7.6086768427737402E-006   8.9088913783996683E-016
 chl          54   4.5317561743220834E-014   1.2220762669329385E-012   3.7082433371327092E-002
 chl2c          55  0.31223596668579395        3.7357235588660491E-002  0.57808280000000001        7.6086768427737402E-006   2.5829775289236707E-006
 chl          55   3.8308402153606529E-013   1.2269054894677345E-012  0.31223596668579395     
 chl2c          56   3.7507394187257688E-002   3.7507394187257688E-002  0.61626080000000005        7.6086768427737402E-006   7.6822561663376699E-016
 chl          56   4.5836896270752108E-014   1.2220762669330994E-012   3.7507394187257688E-002
 chl2c          57   3.7727617852646313E-002   3.7727617852646313E-002  0.68163462500000005        7.6086768427737402E-006   9.1028168576558356E-016
 chl          57   4.6106026385636119E-014   1.2220762669329817E-012   3.7727617852646313E-002
 chl2c          58  0.55889167242500282        3.7765358178394853E-002  0.69416802499999997        7.6086768427737402E-006   1.0910621808157749E-005
 chl          58   6.8709787494175370E-013   1.2293936532646310E-012  0.55889167242500282     
 chl2c          59  0.46639187624409534        3.7173699120809672E-002  0.53705127500000005        7.6086768427737402E-006   1.3485775785357838E-005
 chl          59   5.7308827730383346E-013   1.2287698531950767E-012  0.46639187624409534     
 chl2c          60  0.54160005812260004        3.7607757740906807E-002  0.64452155000000000        7.6086768427737402E-006   1.2902955982531326E-005
 chl          60   6.6592414125591053E-013   1.2295496118746126E-012  0.54160005812260004     
 chl2c          61   3.7805373434125003E-002   3.7805373434125003E-002  0.70794139999999994        7.6086768427737402E-006   9.0288572705274342E-016
 chl          61   4.6201049636382178E-014   1.2220762669329652E-012   3.7805373434125003E-002
 chl2c          62  0.58515251181604944        3.7956103087269030E-002  0.76481592499999995        7.6086768427737402E-006   9.4764460230028556E-006
 chl          62   7.1841622640151479E-013   1.2277418483121176E-012  0.58515251181604944     
 chl2c          63  0.55006897824408585        3.7855601011927406E-002  0.72597904999999996        7.6086768427737402E-006   8.6363389540357815E-006
 chl          63   6.7616112648978981E-013   1.2292297025151493E-012  0.55006897824408585     
 chl2c          64   2.5708982294816416E-002   2.5708982294816416E-002  0.48435739999999999        4.3580206719179768E-006   5.2182510431765912E-016
 chl          64   8.9378320124362592E-016   3.4765405763410372E-014   2.5708982294816416E-002
 chl2c          65  0.60824248141973625        3.7953597170552002E-002  0.76379975000000000        7.6086768427737402E-006   1.1361746514085044E-005
 chl          65   7.4803460445127408E-013   1.2298295947781227E-012  0.60824248141973625     
 chl2c          66   3.1840477731474713E-002   3.1840477731474713E-002  0.35213202499999996        5.2356297934006994E-006   2.8190591570275722E-019
 chl          66   1.1069471280314579E-015   3.4765405763281832E-014   3.1840477731474713E-002
 chl2c          67   3.7937587124568600E-002   3.7937587124568600E-002  0.75736760000000003        7.6086768427737402E-006   8.9986355828084721E-016
 chl          67   4.6362624849636666E-014   1.2220762669329585E-012   3.7937587124568600E-002
 chl2c          68  0.58146343013050084        3.7855407263856986E-002  0.72590779999999999        7.6086768427737402E-006   1.1116866584797915E-005
 chl          68   7.1497138318906890E-013   1.2296067923456582E-012  0.58146343013050084     
 chl2c          69   2.1732330561541505E-002   2.1732330561541505E-002  0.45524217500000003        7.6086768427737402E-006   5.2717559820015914E-016
 chl          69   7.5553329015680619E-016   3.4765405763421959E-014   2.1732330561541505E-002
 chl2c          70   3.2658010878182209E-002   3.2658010878182209E-002  0.48694062500000002        5.2356297934006994E-006   4.1690721788644545E-018
 chl          70   1.1353689996017110E-015   3.4765405763282886E-014   3.2658010878182209E-002
 chl2c          71   4.3481058864416305E-002   4.3481058864416305E-002  0.23986107500000001        3.8941372740717649E-006   4.6624313337014384E-009
 chl          71   1.5116914091306815E-015   3.4766665040160922E-014   4.3481058864416305E-002
 chl2c          72  0.45025702502321607        3.7549776402781669E-002  0.62790522500000001        7.6086768427737402E-006   6.0544253184761720E-006
 chl          72   5.5172399136605727E-013   1.2253534330477339E-012  0.45025702502321607     
 chl2c          73   3.1852614277819484E-002   3.1852614277819484E-002  0.35362212500000001        5.2356297934006994E-006   3.5401869372273539E-019
 chl          73   1.1073690599896991E-015   3.4765405763281845E-014   3.1852614277819484E-002
 chl2c          74  0.54495640235407961        3.7616827685877569E-002  0.64719590000000005        7.6086768427737402E-006   1.3123750129884731E-005
 chl          74   6.7009402814044393E-013   1.2296286918472745E-012  0.54495640235407961     
 chl2c          75   3.7826830779512356E-002   3.7826830779512356E-002  0.71554212500000003        7.6086768427737402E-006   7.6822561663376699E-016
 chl          75   4.6227272148936523E-014   1.2220762669330994E-012   3.7826830779512356E-002
 chl2c          76   3.7257729557919804E-002   3.7257729557919804E-002  0.55513977500000000        7.6086768427737402E-006   7.6822561663376699E-016
 chl          76   4.5591392506018740E-014   1.2236760813657112E-012   3.7257729557919804E-002
 chl2c          77  0.45907759916490148        3.7138172437479272E-002  0.52973029999999999        7.6086768427737402E-006   1.3094571510502414E-005
 chl          77   5.6403939854288454E-013   1.2286362906160459E-012  0.45907759916490148     
 chl2c          78   4.7515248899399322E-002   4.7515248899399322E-002  0.45117492500000000        3.8941372740717649E-006   4.3035308729819471E-018
 chl          78   1.6518869079310001E-015   3.4765405763282930E-014   4.7515248899399322E-002
 prod   1.2798001604516875E-009   5.3663982856169001        10.000000000000000     
 chl2c           1  0.60826437499999997        3.7477407714772232E-002  0.60826437499999997        0.0000000000000000        1.1341338498810964E-005
 chl           1   1.7650126138122401E-016   2.9017195258430846E-016  0.60826437499999997     
 chl2c           2  0.48302390000000001        3.2640259920490348E-002  0.48302390000000001        0.0000000000000000        2.2698193501299768E-019
 chl           2   2.5230935153674050E-018   5.2235376248823398E-018  0.48302390000000001     
 chl2c           3  0.75128689999999998        3.7922212503796585E-002  0.75128689999999998        0.0000000000000000        7.9600845366820752E-016
 chl           3   2.1733021573830398E-016   2.8927725977692940E-016  0.75128689999999998     
 chl2c           4  0.77318742499999993        3.7976509103863923E-002  0.77318742499999993        0.0000000000000000        6.9043875796764806E-006
 chl           4   2.2441944074393824E-016   2.9025231591672393E-016  0.77318742499999993     
 chl2c           5  0.48489679999999996        2.5710500362372445E-002  0.48489679999999996        0.0000000000000000        5.3109695824156489E-016
 chl           5   2.5328766789921524E-018   5.2235376248969939E-018  0.48489679999999996     
 chl2c           6  0.29222855000000003        3.1261039902252048E-002  0.29222855000000003        0.0000000000000000        5.4588654752800719E-008
 chl           6   1.5267648749598230E-018   5.2245575422381657E-018  0.29222855000000003     
 chl2c           7  0.22770740000000000        4.3064391842467263E-002  0.22770740000000000        0.0000000000000000        2.2148770501958331E-019
 chl           7   1.1894404685542774E-018   5.2235477132244156E-018  0.22770740000000000     
 chl2c           8  0.49578364999999996        4.7969800906495587E-002  0.49578364999999996        0.0000000000000000        2.7952425759981137E-009
 chl           8   2.5898034230846263E-018   5.2236563732681111E-018  0.49578364999999996     
 chl2c           9  0.28700202499999999        2.4803669054600401E-002  0.28700202499999999        0.0000000000000000        2.2950048677515118E-006
 chl           9   1.5099376786552774E-018   5.2610697734807879E-018  0.28700202499999999     
 chl2c          10  0.39094662499999999        2.5387016219684602E-002  0.39094662499999999        0.0000000000000000        5.3502313281423031E-016
 chl          10   2.0421244050143131E-018   5.2235376248978058E-018  0.39094662499999999     
 chl2c          11  0.49737575000000001        2.1820572217820047E-002  0.49737575000000001        0.0000000000000000        5.3565130197112980E-016
 chl          11   2.5980609438364630E-018   5.2235376248971988E-018  0.49737575000000001     
 chl2c          12  0.30768942500000002        4.5290941298723353E-002  0.30768942500000002        0.0000000000000000        1.0716517964487807E-009
 chl          12   1.6072282435448759E-018   5.2235407295680562E-018  0.30768942500000002     
 chl2c          13  0.75666275000000005        3.7935816987997487E-002  0.75666275000000005        0.0000000000000000        8.9996714596110330E-006
 chl          13   2.1927564824873560E-016   2.8979310564546172E-016  0.75666275000000005     
 chl2c          14  0.39804095000000000        4.6856526101924839E-002  0.39804095000000000        0.0000000000000000        3.2211255161756306E-018
 chl          14   2.0791818785689491E-018   5.2235376248824377E-018  0.39804095000000000     
 chl2c          15  0.25607262500000000        2.0954299823745293E-002  0.25607262500000000        0.0000000000000000        5.3743090662915571E-016
 chl          15   1.3376049913940381E-018   5.2235376248985539E-018  0.25607262500000000     
 chl2c          16  0.71433214999999994        3.7823443882273475E-002  0.71433214999999994        0.0000000000000000        1.0124232180071406E-005
 chl          16   2.0717012026042014E-016   2.9001931420897150E-016  0.71433214999999994     
 chl2c          17  0.62580860000000005        3.7542254757581245E-002  0.62580860000000005        0.0000000000000000        7.9600845366820752E-016
 chl          17   1.8103219695283652E-016   2.8927725977692940E-016  0.62580860000000005     
 chl2c          18  0.47925950000000000        2.5694475239060960E-002  0.47925950000000000        0.0000000000000000        5.3640396793866452E-016
 chl          18   2.5034300303394353E-018   5.2235376248972327E-018  0.47925950000000000     
 chl2c          19  0.63367130000000005        3.7570220750293731E-002  0.63367130000000005        0.0000000000000000        9.4073419104816131E-006
 chl          19   1.8388129141533539E-016   2.9018402982009029E-016  0.63367130000000005     
 chl2c          20  0.50678202500000002        3.7020645196759419E-002  0.50678202500000002        0.0000000000000000        6.7693511889244089E-006
 chl          20   1.4672604100226533E-016   2.8952495109167558E-016  0.50678202500000002     
 chl2c          21  0.71973185000000006        3.7838475073783531E-002  0.71973185000000006        0.0000000000000000        1.2501817813296146E-005
 chl          21   2.0896834416845901E-016   2.9034194355642171E-016  0.71973185000000006     
 chl2c          22  0.64616892500000001        3.7613353106285476E-002  0.64616892500000001        0.0000000000000000        1.0647046739511918E-006
 chl          22   1.8735168283386841E-016   2.8994226677469581E-016  0.64616892500000001     
 chl2c          23  0.41564179999999995        3.2286562315070731E-002  0.41564179999999995        0.0000000000000000        4.5432708059870233E-009
 chl          23   2.1711730418753813E-018   5.2236638419797561E-018  0.41564179999999995     
 chl2c          24  0.57597492500000003        3.7348402796863071E-002  0.57597492500000003        0.0000000000000000        9.0238521195774188E-016
 chl          24   1.6661644800421012E-016   2.8927725977690801E-016  0.57597492500000003     
 chl2c          25  0.31406487500000002        4.5426679235459781E-002  0.31406487500000002        0.0000000000000000        3.4437622114237158E-009
 chl          25   1.6405587874880922E-018   5.2236302690267164E-018  0.31406487500000002     
 chl2c          26  0.49427735000000000        4.7955660680174553E-002  0.49427735000000000        0.0000000000000000        2.2396751264266509E-019
 chl          26   2.5818763348521371E-018   5.2235376248823398E-018  0.49427735000000000     
 chl2c          27  0.30964730000000001        4.5333133499525620E-002  0.30964730000000001        0.0000000000000000        3.1932355548426229E-018
 chl          27   1.6174543219932595E-018   5.2235376248824369E-018  0.30964730000000001     
 chl2c          28  0.28776342500000002        3.1209236063453518E-002  0.28776342500000002        0.0000000000000000        3.1733847585587511E-018
 chl          28   1.5031430775525351E-018   5.2235376248824361E-018  0.28776342500000002     
 chl2c          29  0.68676297499999994        3.7743217595736761E-002  0.68676297499999994        0.0000000000000000        9.1230613361039916E-016
 chl          29   1.9866493120195133E-016   2.8927728842975460E-016  0.68676297499999994     
 chl2c          30  0.38930277499999999        2.5380056985171612E-002  0.38930277499999999        0.0000000000000000        5.3791924622626969E-016
 chl          30   2.0335376926894282E-018   5.2235376248973012E-018  0.38930277499999999     
 chl2c          31  0.63559385000000002        3.7576959810037038E-002  0.63559385000000002        0.0000000000000000        9.1599814085834617E-016
 chl          31   1.8386284725905925E-016   2.8927725977691451E-016  0.63559385000000002     
 chl2c          32  0.24722667500000001        2.0893126428578448E-002  0.24722667500000001        0.0000000000000000        5.3817040760991451E-016
 chl          32   1.2931860570589476E-018   5.2307707372553858E-018  0.24722667500000001     
 chl2c          33  0.60343137499999999        3.7458922634011876E-002  0.60343137499999999        0.0000000000000000        9.8848254384170968E-006
 chl          33   1.7512087999499866E-016   2.9020844332961417E-016  0.60343137499999999     
 chl2c          34  0.38241020000000003        2.5350269098008315E-002  0.38241020000000003        0.0000000000000000        5.3055966886605006E-016
 chl          34   1.9975340678443759E-018   5.2235376248969707E-018  0.38241020000000003     
 chl2c          35  0.49574644999999995        2.5740370148566064E-002  0.49574644999999995        0.0000000000000000        5.3192337412609807E-016
 chl          35   2.5895502339841342E-018   5.2235376248970308E-018  0.49574644999999995     
 chl2c          36  0.69587337500000002        3.7770393924465726E-002  0.69587337500000002        0.0000000000000000        7.9600845366820752E-016
 chl          36   2.0130034307172361E-016   2.8927725977692940E-016  0.69587337500000002     
 chl2c          37  0.33194060000000003        2.1353674699533250E-002  0.33194060000000003        0.0000000000000000        5.2996948079337832E-016
 chl          37   1.7339042133308664E-018   5.2235376248969430E-018  0.33194060000000003     
 chl2c          38  0.38455722500000000        2.1543295686358745E-002  0.38455722500000000        0.0000000000000000        5.3824076941866355E-016
 chl          38   2.0087491337136024E-018   5.2235376248973151E-018  0.38455722500000000     
 chl2c          39  0.47091117500000002        2.5670077108751441E-002  0.47091117500000002        0.0000000000000000        5.3451807153879755E-016
 chl          39   2.4598222405970246E-018   5.2235376248971464E-018  0.47091117500000002     
 chl2c          40  0.66875547499999999        3.7687445774703773E-002  0.66875547499999999        0.0000000000000000        1.0112552549206309E-005
 chl          40   1.9393592270045192E-016   2.8999526725437563E-016  0.66875547499999999     
 chl2c          41  0.44304987499999998        2.5582381488167241E-002  0.44304987499999998        0.0000000000000000        7.4995879097233223E-006
 chl          41   2.3376011827160669E-018   5.2761580910412563E-018  0.44304987499999998     
 chl2c          42  0.76234377499999995        3.7949995630725070E-002  0.76234377499999995        0.0000000000000000        1.2108457937858569E-005
 chl          42   2.2122553636886690E-016   2.9019130689283442E-016  0.76234377499999995     
 chl2c          43  0.29539925000000000        2.1185090152268007E-002  0.29539925000000000        0.0000000000000000        7.1254880796059727E-006
 chl          43   1.5614725684705523E-018   5.2859733681468463E-018  0.29539925000000000     
 chl2c          44  0.62417262500000004        3.7536352708156646E-002  0.62417262500000004        0.0000000000000000        5.6254451961920067E-006
 chl          44   1.8067934780686211E-016   2.8947015708492838E-016  0.62417262500000004     
 chl2c          45  0.37662252499999999        4.6544927192009838E-002  0.37662252499999999        0.0000000000000000        2.9829231541595364E-019
 chl          45   1.9673019297156909E-018   5.2235376248823429E-018  0.37662252499999999     
 chl2c          46  0.51876034999999998        3.7083195475449568E-002  0.51876034999999998        0.0000000000000000        9.1595266227338249E-016
 chl          46   1.5006557253025180E-016   2.8927725977949512E-016  0.51876034999999998     
 chl2c          47  0.61962282499999999        3.7519784612651236E-002  0.61962282499999999        0.0000000000000000        9.1668544834945878E-016
 chl          47   1.7924279291122968E-016   2.8927725977691299E-016  0.61962282499999999     
 chl2c          48  0.71424949999999998        3.7823212136301673E-002  0.71424949999999998        0.0000000000000000        1.0788618803436837E-005
 chl          48   2.0712607273344795E-016   2.8999120438088923E-016  0.71424949999999998     
 chl2c          49  0.53276120000000005        3.7152990741888416E-002  0.53276120000000005        0.0000000000000000        9.1086161933042598E-016
 chl          49   1.5411570005145886E-016   2.8927725977691101E-016  0.53276120000000005     
 chl2c          50  0.38132569999999999        2.1533072915600981E-002  0.38132569999999999        0.0000000000000000        5.3323859780933674E-016
 chl          50   2.0051382850558350E-018   5.2583350271325410E-018  0.38132569999999999     
 chl2c          51  0.22275920000000002        2.0700971146093840E-002  0.22275920000000002        0.0000000000000000        5.3915990183188184E-016
 chl          51   1.1635910624920355E-018   5.2235376248973575E-018  0.22275920000000002     
 chl2c          52  0.63698869999999996        3.7581825176985564E-002  0.63698869999999996        0.0000000000000000        8.9253138411195727E-006
 chl          52   1.8462037063318679E-016   2.8983303884854910E-016  0.63698869999999996     
 chl2c          53  0.75269794999999995        3.7925801262726190E-002  0.75269794999999995        0.0000000000000000        1.0837472256256858E-005
 chl          53   2.1839544014822720E-016   2.9015017265322327E-016  0.75269794999999995     
 chl2c          54  0.51861124999999997        3.7082433371327092E-002  0.51861124999999997        0.0000000000000000        9.0295394216134999E-016
 chl          54   1.5002244128947709E-016   2.8927725977690825E-016  0.51861124999999997     
 chl2c          55  0.57808280000000001        3.7357235588660491E-002  0.57808280000000001        0.0000000000000000        3.3004377299498836E-007
 chl          55   1.6759400174210435E-016   2.8991348945532431E-016  0.57808280000000001     
 chl2c          56  0.61626080000000005        3.7507394187257688E-002  0.61626080000000005        0.0000000000000000        7.9600845366820752E-016
 chl          56   1.7827023553193834E-016   2.8927725977692940E-016  0.61626080000000005     
 chl2c          57  0.68163462500000005        3.7727617852646313E-002  0.68163462500000005        0.0000000000000000        9.1932970615567723E-016
 chl          57   1.9718139648906432E-016   2.8927725977691392E-016  0.68163462500000005     
 chl2c          58  0.69416802499999997        3.7765358178394853E-002  0.69416802499999997        0.0000000000000000        1.0287291213632984E-005
 chl          58   2.0147673653606724E-016   2.9024202971041088E-016  0.69416802499999997     
 chl2c          59  0.53705127500000005        3.7173699120809672E-002  0.53705127500000005        0.0000000000000000        1.3117889794103681E-005
 chl          59   1.5583081462428156E-016   2.9016003104039099E-016  0.53705127500000005     
 chl2c          60  0.64452155000000000        3.7607757740906807E-002  0.64452155000000000        0.0000000000000000        1.2182959321869797E-005
 chl          60   1.8708057757120458E-016   2.9026271902189241E-016  0.64452155000000000     
 chl2c          61  0.70794139999999994        3.7805373434125003E-002  0.70794139999999994        0.0000000000000000        9.1309788001743341E-016
 chl          61   2.0479134827463057E-016   2.8927725977691175E-016  0.70794139999999994     
 chl2c          62  0.76481592499999995        3.7956103087269030E-002  0.76481592499999995        0.0000000000000000        1.0792083279054528E-005
 chl          62   2.2181526367412532E-016   2.9002437896952177E-016  0.76481592499999995     
 chl2c          63  0.72597904999999996        3.7855601011927406E-002  0.72597904999999996        0.0000000000000000        6.9053539403498400E-006
 chl          63   2.1069380955916723E-016   2.9022023370945380E-016  0.72597904999999996     
 chl2c          64  0.48435739999999999        2.5708982294816416E-002  0.48435739999999999        0.0000000000000000        5.2673086222396448E-016
 chl          64   2.5300591027971892E-018   5.2235376248967997E-018  0.48435739999999999     
 chl2c          65  0.76379975000000000        3.7953597170552002E-002  0.76379975000000000        0.0000000000000000        1.1342127304295729E-005
 chl          65   2.2173065439555992E-016   2.9029945924381347E-016  0.76379975000000000     
 chl2c          66  0.35213202499999996        3.1840477731474713E-002  0.35213202499999996        0.0000000000000000        2.4531278157623214E-019
 chl          66   1.8393748815135095E-018   5.2235376248823421E-018  0.35213202499999996     
 chl2c          67  0.75736760000000003        3.7937587124568600E-002  0.75736760000000003        0.0000000000000000        9.1054659913653178E-016
 chl          67   2.1908922397181553E-016   2.8927725977691086E-016  0.75736760000000003     
 chl2c          68  0.72590779999999999        3.7855407263856986E-002  0.72590779999999999        0.0000000000000000        1.0685960100839348E-005
 chl          68   2.1070933512136780E-016   2.9027010747283307E-016  0.72590779999999999     
 chl2c          69  0.45524217500000003        2.1732330561541505E-002  0.45524217500000003        0.0000000000000000        5.3122097654229052E-016
 chl          69   2.3779746295529040E-018   5.2235376248980092E-018  0.45524217500000003     
 chl2c          70  0.48694062500000002        3.2658010878182209E-002  0.48694062500000002        0.0000000000000000        3.9237518306151018E-018
 chl          70   2.5435526757712811E-018   5.2235376248824608E-018  0.48694062500000002     
 chl2c          71  0.23986107500000001        4.3481058864416305E-002  0.23986107500000001        0.0000000000000000        3.9051962164622216E-009
 chl          71   1.2529571480220432E-018   5.2236785315084711E-018  0.23986107500000001     
 chl2c          72  0.62790522500000001        3.7549776402781669E-002  0.62790522500000001        0.0000000000000000        7.8879973837648818E-006
 chl          72   1.8191010260558599E-016   2.8970949016324236E-016  0.62790522500000001     
 chl2c          73  0.35362212500000001        3.1852614277819484E-002  0.35362212500000001        0.0000000000000000        3.0807010925487156E-019
 chl          73   1.8471584749283471E-018   5.2235376248823429E-018  0.35362212500000001     
 chl2c          74  0.64719590000000005        3.7616827685877569E-002  0.64719590000000005        0.0000000000000000        1.2388811130639823E-005
 chl          74   1.8786359087693481E-016   2.9027314739931882E-016  0.64719590000000005     
 chl2c          75  0.71554212500000003        3.7826830779512356E-002  0.71554212500000003        0.0000000000000000        7.9600845366820752E-016
 chl          75   2.0699006517496109E-016   2.8927725977692940E-016  0.71554212500000003     
 chl2c          76  0.55513977500000000        3.7257729557919804E-002  0.55513977500000000        0.0000000000000000        7.9600845366820752E-016
 chl          76   1.6070623843380186E-016   2.8948788336018954E-016  0.55513977500000000     
 chl2c          77  0.52973029999999999        3.7138172437479272E-002  0.52973029999999999        0.0000000000000000        1.2693694479146188E-005
 chl          77   1.5369722941683654E-016   2.9014241665397757E-016  0.52973029999999999     
 chl2c          78  0.45117492500000000        4.7515248899399322E-002  0.45117492500000000        0.0000000000000000        4.0503386446231089E-018
 chl          78   2.3567291961410247E-018   5.2235376248824654E-018  0.45117492500000000     
 prod   1.1136001970357480E-009   0.0000000000000000        10.000000000000000     
 chl2c           1  0.60826437499999997        3.7477407714772232E-002  0.60826437499999997        0.0000000000000000        1.1191984844203913E-005
 chl           1   1.5256593607950430E-020   2.5082175177447191E-020  0.60826437499999997     
 chl2c           2  0.48302390000000001        3.2640259920490348E-002  0.48302390000000001        0.0000000000000000        2.1436210937063897E-019
 chl           2   4.8978787222195852E-021   1.0140033903538904E-020  0.48302390000000001     
 chl2c           3  0.75128689999999998        3.7922212503796585E-002  0.75128689999999998        0.0000000000000000        8.1690767031783070E-016
 chl           3   1.8822658568590398E-020   2.5053888958519572E-020  0.75128689999999998     
 chl2c           4  0.77318742499999993        3.7976509103863923E-002  0.77318742499999993        0.0000000000000000        4.7550095232996152E-006
 chl           4   1.9395180184960618E-020   2.5084707223427255E-020  0.77318742499999993     
 chl2c           5  0.48489679999999996        2.5710500362372445E-002  0.48489679999999996        0.0000000000000000        5.3399198479339295E-016
 chl           5   4.9168699917176975E-021   1.0140033903539265E-020  0.48489679999999996     
 chl2c           6  0.29222855000000003        3.1261039902252048E-002  0.29222855000000003        0.0000000000000000        5.3242790593540102E-008
 chl           6   2.9632147609130059E-021   1.0140059076750049E-020  0.29222855000000003     
 chl2c           7  0.22770740000000000        4.3064391842467263E-002  0.22770740000000000        0.0000000000000000        2.0917323362911565E-019
 chl           7   2.3089608126447010E-021   1.0140034151919089E-020  0.22770740000000000     
 chl2c           8  0.49578364999999996        4.7969800906495587E-002  0.49578364999999996        0.0000000000000000        1.9934379141944134E-009
 chl           8   5.0272644680564957E-021   1.0140036824644170E-020  0.49578364999999996     
 chl2c           9  0.28700202499999999        2.4803669054600401E-002  0.28700202499999999        0.0000000000000000        4.2564330017760857E-007
 chl           9   2.9104763236756934E-021   1.0140960934598609E-020  0.28700202499999999     
 chl2c          10  0.39094662499999999        2.5387016219684602E-002  0.39094662499999999        0.0000000000000000        5.3736845590819098E-016
 chl          10   3.9642120319742589E-021   1.0140033903539284E-020  0.39094662499999999     
 chl2c          11  0.49737575000000001        2.1820572217820047E-002  0.49737575000000001        0.0000000000000000        5.3790813560550028E-016
 chl          11   5.0434069677982721E-021   1.0140033903539269E-020  0.49737575000000001     
 chl2c          12  0.30768942500000002        4.5290941298723353E-002  0.30768942500000002        0.0000000000000000        1.7267037164412290E-009
 chl          12   3.1199812247402690E-021   1.0140033979849222E-020  0.30768942500000002     
 chl2c          13  0.75666275000000005        3.7935816987997487E-002  0.75666275000000005        0.0000000000000000        1.0344018060492696E-005
 chl          13   1.8969686117155503E-020   2.5070199527009226E-020  0.75666275000000005     
 chl2c          14  0.39804095000000000        4.6856526101924839E-002  0.39804095000000000        0.0000000000000000        3.0449481510905599E-018
 chl          14   4.0361487279968346E-021   1.0140033903538905E-020  0.39804095000000000     
 chl2c          15  0.25607262500000000        2.0954299823745293E-002  0.25607262500000000        0.0000000000000000        5.3943632870383568E-016
 chl          15   2.5965850992683055E-021   1.0140033903539301E-020  0.25607262500000000     
 chl2c          16  0.71433214999999994        3.7823443882273475E-002  0.71433214999999994        0.0000000000000000        1.0670170365337458E-005
 chl          16   1.7913557001237974E-020   2.5077349523240658E-020  0.71433214999999994     
 chl2c          17  0.62580860000000005        3.7542254757581245E-002  0.62580860000000005        0.0000000000000000        8.1690767031783070E-016
 chl          17   1.5678939173686594E-020   2.5053888958519572E-020  0.62580860000000005     
 chl2c          18  0.47925950000000000        2.5694475239060960E-002  0.47925950000000000        0.0000000000000000        5.3855459498503334E-016
 chl          18   4.8597075785932784E-021   1.0140033903539269E-020  0.47925950000000000     
 chl2c          19  0.63367130000000005        3.7570220750293731E-002  0.63367130000000005        0.0000000000000000        7.8627629656166482E-006
 chl          19   1.5894095289549420E-020   2.5082555087392185E-020  0.63367130000000005     
 chl2c          20  0.50678202500000002        3.7020645196759419E-002  0.50678202500000002        0.0000000000000000        8.6644703492165403E-006
 chl          20   1.2700830872252974E-020   2.5061723276892022E-020  0.50678202500000002     
 chl2c          21  0.71973185000000006        3.7838475073783531E-002  0.71973185000000006        0.0000000000000000        1.1498526791355980E-005
 chl          21   1.8056306941883280E-020   2.5087547455185259E-020  0.71973185000000006     
 chl2c          22  0.64616892500000001        3.7613353106285476E-002  0.64616892500000001        0.0000000000000000        8.1690767031783070E-016
 chl          22   1.6202621058890381E-020   2.5074899816468862E-020  0.64616892500000001     
 chl2c          23  0.41564179999999995        3.2286562315070731E-002  0.41564179999999995        0.0000000000000000        4.1907862762861048E-009
 chl          23   4.2146232340070172E-021   1.0140037007844297E-020  0.41564179999999995     
 chl2c          24  0.57597492500000003        3.7348402796863071E-002  0.57597492500000003        0.0000000000000000        9.1112406416616807E-016
 chl          24   1.4430411813841249E-020   2.5053888958518895E-020  0.57597492500000003     
 chl2c          25  0.31406487500000002        4.5426679235459781E-002  0.31406487500000002        0.0000000000000000        3.1888535761724720E-009
 chl          25   3.1846291960202042E-021   1.0140036182079273E-020  0.31406487500000002     
 chl2c          26  0.49427735000000000        4.7955660680174553E-002  0.49427735000000000        0.0000000000000000        2.1151521962534089E-019
 chl          26   5.0119890867513652E-021   1.0140033903538904E-020  0.49427735000000000     
 chl2c          27  0.30964730000000001        4.5333133499525620E-002  0.30964730000000001        0.0000000000000000        3.0185764022383171E-018
 chl          27   3.1398341201392827E-021   1.0140033903538905E-020  0.30964730000000001     
 chl2c          28  0.28776342500000002        3.1209236063453518E-002  0.28776342500000002        0.0000000000000000        2.9998062767199977E-018
 chl          28   2.9179308856984751E-021   1.0140033903538905E-020  0.28776342500000002     
 chl2c          29  0.68676297499999994        3.7743217595736761E-002  0.68676297499999994        0.0000000000000000        9.1971906222020115E-016
 chl          29   1.7206083890447944E-020   2.5053889794288845E-020  0.68676297499999994     
 chl2c          30  0.38930277499999999        2.5380056985171612E-002  0.38930277499999999        0.0000000000000000        5.3985550769917089E-016
 chl          30   3.9475433372419211E-021   1.0140033903539272E-020  0.38930277499999999     
 chl2c          31  0.63559385000000002        3.7576959810037038E-002  0.63559385000000002        0.0000000000000000        9.2291108128511224E-016
 chl          31   1.5924097740617636E-020   2.5053888958519088E-020  0.63559385000000002     
 chl2c          32  0.24722667500000001        2.0893126428578448E-002  0.24722667500000001        0.0000000000000000        5.4007107266339077E-016
 chl          32   2.5069310078913494E-021   1.0140212450340762E-020  0.24722667500000001     
 chl2c          33  0.60343137499999999        3.7458922634011876E-002  0.60343137499999999        0.0000000000000000        7.7238779222877312E-006
 chl          33   1.5136067379670125E-020   2.5083328455816747E-020  0.60343137499999999     
 chl2c          34  0.38241020000000003        2.5350269098008315E-002  0.38241020000000003        0.0000000000000000        5.3352944217941464E-016
 chl          34   3.8776523930592314E-021   1.0140033903539265E-020  0.38241020000000003     
 chl2c          35  0.49574644999999995        2.5740370148566064E-002  0.49574644999999995        0.0000000000000000        5.3470319972877119E-016
 chl          35   5.0268858105592326E-021   1.0140033903539265E-020  0.49574644999999995     
 chl2c          36  0.69587337500000002        3.7770393924465726E-002  0.69587337500000002        0.0000000000000000        8.1690767031783070E-016
 chl          36   1.7434334266440251E-020   2.5053888958519572E-020  0.69587337500000002     
 chl2c          37  0.33194060000000003        2.1353674699533250E-002  0.33194060000000003        0.0000000000000000        5.3302122159787948E-016
 chl          37   3.3658889379611655E-021   1.0140033903539263E-020  0.33194060000000003     
 chl2c          38  0.38455722500000000        2.1543295686358745E-002  0.38455722500000000        0.0000000000000000        5.4013145925168851E-016
 chl          38   3.8994232993509806E-021   1.0140033903539272E-020  0.38455722500000000     
 chl2c          39  0.47091117500000002        2.5670077108751441E-002  0.47091117500000002        0.0000000000000000        5.3693443935012230E-016
 chl          39   4.7750552800555132E-021   1.0140033903539268E-020  0.47091117500000002     
 chl2c          40  0.66875547499999999        3.7687445774703773E-002  0.66875547499999999        0.0000000000000000        1.0663609175199758E-005
 chl          40   1.6770106950104843E-020   2.5076590139474884E-020  0.66875547499999999     
 chl2c          41  0.44304987499999998        2.5582381488167241E-002  0.44304987499999998        0.0000000000000000        7.2845702243989992E-006
 chl          41   4.4931165113224888E-021   1.0141333436382279E-020  0.44304987499999998     
 chl2c          42  0.76234377499999995        3.7949995630725070E-002  0.76234377499999995        0.0000000000000000        1.2277892361746047E-005
 chl          42   1.9121706471695478E-020   2.5082786924698740E-020  0.76234377499999995     
 chl2c          43  0.29539925000000000        2.1185090152268007E-002  0.29539925000000000        0.0000000000000000        6.0499428481130288E-006
 chl          43   2.9958138370110954E-021   1.0141575637077939E-020  0.29539925000000000     
 chl2c          44  0.62417262500000004        3.7536352708156646E-002  0.62417262500000004        0.0000000000000000        7.6860250803977913E-006
 chl          44   1.5641758697193620E-020   2.5059988328058475E-020  0.62417262500000004     
 chl2c          45  0.37662252499999999        4.6544927192009838E-002  0.37662252499999999        0.0000000000000000        2.8170977619742882E-019
 chl          45   3.8189651723364280E-021   1.0140033903538904E-020  0.37662252499999999     
 chl2c          46  0.51876034999999998        3.7083195475449568E-002  0.51876034999999998        0.0000000000000000        9.2287178298752947E-016
 chl          46   1.2996964205019704E-020   2.5053888958590810E-020  0.51876034999999998     
 chl2c          47  0.61962282499999999        3.7519784612651236E-002  0.61962282499999999        0.0000000000000000        9.2350492289904689E-016
 chl          47   1.5523961453713885E-020   2.5053888958519054E-020  0.61962282499999999     
 chl2c          48  0.71424949999999998        3.7823212136301673E-002  0.71424949999999998        0.0000000000000000        1.1546370007147862E-005
 chl          48   1.7910850910697948E-020   2.5076462651633565E-020  0.71424949999999998     
 chl2c          49  0.53276120000000005        3.7152990741888416E-002  0.53276120000000005        0.0000000000000000        9.1846920948230614E-016
 chl          49   1.3347739946207328E-020   2.5053888958518991E-020  0.53276120000000005     
 chl2c          50  0.38132569999999999        2.1533072915600981E-002  0.38132569999999999        0.0000000000000000        5.3583451739968386E-016
 chl          50   3.8669830602618000E-021   1.0140892838488988E-020  0.38132569999999999     
 chl2c          51  0.22275920000000002        2.0700971146093840E-002  0.22275920000000002        0.0000000000000000        5.4092017286180325E-016
 chl          51   2.2587858403252861E-021   1.0140033903539274E-020  0.22275920000000002     
 chl2c          52  0.63698869999999996        3.7581825176985564E-002  0.63698869999999996        0.0000000000000000        9.9354904354351159E-006
 chl          52   1.5970238121829583E-020   2.5071462212484433E-020  0.63698869999999996     
 chl2c          53  0.75269794999999995        3.7925801262726190E-002  0.75269794999999995        0.0000000000000000        1.1037382038676059E-005
 chl          53   1.8878782351007005E-020   2.5081485011360806E-020  0.75269794999999995     
 chl2c          54  0.51861124999999997        3.7082433371327092E-002  0.51861124999999997        0.0000000000000000        9.1161748412961847E-016
 chl          54   1.2993228670138685E-020   2.5053888958518901E-020  0.51861124999999997     
 chl2c          55  0.57808280000000001        3.7357235588660491E-002  0.57808280000000001        0.0000000000000000        9.2509023781501678E-016
 chl          55   1.4494842478080041E-020   2.5073990227835943E-020  0.57808280000000001     
 chl2c          56  0.61626080000000005        3.7507394187257688E-002  0.61626080000000005        0.0000000000000000        8.1690767031783070E-016
 chl          56   1.5439729652688438E-020   2.5053888958519572E-020  0.61626080000000005     
 chl2c          57  0.68163462500000005        3.7727617852646313E-002  0.68163462500000005        0.0000000000000000        9.2578846691335657E-016
 chl          57   1.7077598205031797E-020   2.5053888958519082E-020  0.68163462500000005     
 chl2c          58  0.69416802499999997        3.7765358178394853E-002  0.69416802499999997        0.0000000000000000        9.1534291257021208E-006
 chl          58   1.7412779875897550E-020   2.5084387711314637E-020  0.69416802499999997     
 chl2c          59  0.53705127500000005        3.7173699120809672E-002  0.53705127500000005        0.0000000000000000        1.2712125549482168E-005
 chl          59   1.3470213418623155E-020   2.5081801395263707E-020  0.53705127500000005     
 chl2c          60  0.64452155000000000        3.7607757740906807E-002  0.64452155000000000        0.0000000000000000        1.1065383613115023E-005
 chl          60   1.6167851930648094E-020   2.5085044760176122E-020  0.64452155000000000     
 chl2c          61  0.70794139999999994        3.7805373434125003E-002  0.70794139999999994        0.0000000000000000        9.2040388358399844E-016
 chl          61   1.7736685224738489E-020   2.5053888958519012E-020  0.70794139999999994     
 chl2c          62  0.76481592499999995        3.7956103087269030E-002  0.76481592499999995        0.0000000000000000        1.1499387620244060E-005
 chl          62   1.9179679317508110E-020   2.5077510405537268E-020  0.76481592499999995     
 chl2c          63  0.72597904999999996        3.7855601011927406E-002  0.72597904999999996        0.0000000000000000        4.7560948162028008E-006
 chl          63   1.8210236645701372E-020   2.5083694420247216E-020  0.72597904999999996     
 chl2c          64  0.48435739999999999        2.5708982294816416E-002  0.48435739999999999        0.0000000000000000        5.3022975405666562E-016
 chl          64   4.9114004574301272E-021   1.0140033903539260E-020  0.48435739999999999     
 chl2c          65  0.76379975000000000        3.7953597170552002E-002  0.76379975000000000        0.0000000000000000        1.1204622736363708E-005
 chl          65   1.9160834867623089E-020   2.5086202067522394E-020  0.76379975000000000     
 chl2c          66  0.35213202499999996        3.1840477731474713E-002  0.35213202499999996        0.0000000000000000        2.3167421932360695E-019
 chl          66   3.5706306720218087E-021   1.0140033903538904E-020  0.35213202499999996     
 chl2c          67  0.75736760000000003        3.7937587124568600E-002  0.75736760000000003        0.0000000000000000        9.1819656900017643E-016
 chl          67   1.8975003751180024E-020   2.5053888958518985E-020  0.75736760000000003     
 chl2c          68  0.72590779999999999        3.7855407263856986E-002  0.72590779999999999        0.0000000000000000        9.8025272288926430E-006
 chl          68   1.8209596608311599E-020   2.5085274752952923E-020  0.72590779999999999     
 chl2c          69  0.45524217500000003        2.1732330561541505E-002  0.45524217500000003        0.0000000000000000        5.3409873295889880E-016
 chl          69   4.6161710888209664E-021   1.0140033903539289E-020  0.45524217500000003     
 chl2c          70  0.48694062500000002        3.2658010878182209E-002  0.48694062500000002        0.0000000000000000        3.7093679751736089E-018
 chl          70   4.9375944465104241E-021   1.0140033903538905E-020  0.48694062500000002     
 chl2c          71  0.23986107500000001        4.3481058864416305E-002  0.23986107500000001        0.0000000000000000        3.5171525541416168E-009
 chl          71   2.4322002640238904E-021   1.0140037369647785E-020  0.23986107500000001     
 chl2c          72  0.62790522500000001        3.7549776402781669E-002  0.62790522500000001        0.0000000000000000        9.2212835724911472E-006
 chl          72   1.5740049607695057E-020   2.5067556346095158E-020  0.62790522500000001     
 chl2c          73  0.35362212500000001        3.1852614277819484E-002  0.35362212500000001        0.0000000000000000        2.9094429418658028E-019
 chl          73   3.5857403365414723E-021   1.0140033903538904E-020  0.35362212500000001     
 chl2c          74  0.64719590000000005        3.7616827685877569E-002  0.64719590000000005        0.0000000000000000        1.1274235706705419E-005
 chl          74   1.6235151509442947E-020   2.5085374473853969E-020  0.64719590000000005     
 chl2c          75  0.71554212500000003        3.7826830779512356E-002  0.71554212500000003        0.0000000000000000        8.1690767031783070E-016
 chl          75   1.7927112944893133E-020   2.5053888958519572E-020  0.71554212500000003     
 chl2c          76  0.55513977500000000        3.7257729557919804E-002  0.55513977500000000        0.0000000000000000        8.1690767031783070E-016
 chl          76   1.3912102551511002E-020   2.5060540026178095E-020  0.55513977500000000     
 chl2c          77  0.52973029999999999        3.7138172437479272E-002  0.52973029999999999        0.0000000000000000        1.2072590397442763E-005
 chl          77   1.3286295147132927E-020   2.5081244450492878E-020  0.52973029999999999     
 chl2c          78  0.45117492500000000        4.7515248899399322E-002  0.45117492500000000        0.0000000000000000        3.8290799115719293E-018
 chl          78   4.5749290359266226E-021   1.0140033903538905E-020  0.45117492500000000     
 prod   1.0516617508180742E-009   0.0000000000000000        10.000000000000000     
 chl2c           1  0.60826437499999997        3.7477407714772232E-002  0.60826437499999997        0.0000000000000000        1.0666624503269187E-005
 chl           1   6.0703460318597375E-021   9.9797822811170513E-021  0.60826437499999997     
 chl2c           2  0.48302390000000001        3.2640259920490348E-002  0.48302390000000001        0.0000000000000000        2.0585334523800783E-019
 chl           2   4.8202325777889924E-021   9.9792837948370518E-021  0.48302390000000001     
 chl2c           3  0.75128689999999998        3.7922212503796585E-002  0.75128689999999998        0.0000000000000000        8.5758733082715605E-016
 chl           3   7.4976792360741022E-021   9.9797816733848319E-021  0.75128689999999998     
 chl2c           4  0.77318742499999993        3.7976509103863923E-002  0.77318742499999993        0.0000000000000000        7.5647564508117587E-007
 chl           4   7.7162422059712585E-021   9.9797823354036825E-021  0.77318742499999993     
 chl2c           5  0.48489679999999996        2.5710500362372445E-002  0.48489679999999996        0.0000000000000000        5.3790859207044222E-016
 chl           5   4.8389227784083427E-021   9.9792837948370518E-021  0.48489679999999996     
 chl2c           6  0.29222855000000003        3.1261039902252048E-002  0.29222855000000003        0.0000000000000000        4.7868198790695508E-008
 chl           6   2.9162316335273013E-021   9.9792837952599123E-021  0.29222855000000003     
 chl2c           7  0.22770740000000000        4.3064391842467263E-002  0.22770740000000000        0.0000000000000000        2.0087035859908214E-019
 chl           7   2.2723567667854273E-021   9.9792837948412182E-021  0.22770740000000000     
 chl2c           8  0.49578364999999996        4.7969800906495587E-002  0.49578364999999996        0.0000000000000000        4.8866820110765675E-010
 chl           8   4.9475657442144341E-021   9.9792837948860035E-021  0.49578364999999996     
 chl2c           9  0.28700202499999999        2.4803669054600401E-002  0.28700202499999999        0.0000000000000000        5.4052549568958725E-016
 chl           9   2.8640746616395356E-021   9.9792838104174895E-021  0.28700202499999999     
 chl2c          10  0.39094662499999999        2.5387016219684602E-002  0.39094662499999999        0.0000000000000000        5.4053458442255844E-016
 chl          10   3.9013673195087378E-021   9.9792837948370518E-021  0.39094662499999999     
 chl2c          11  0.49737575000000001        2.1820572217820047E-002  0.49737575000000001        0.0000000000000000        5.4095386316856429E-016
 chl          11   4.9634537619199251E-021   9.9792837948370518E-021  0.49737575000000001     
 chl2c          12  0.30768942500000002        4.5290941298723353E-002  0.30768942500000002        0.0000000000000000        2.4118507042604669E-009
 chl          12   3.0705200927456242E-021   9.9792837948383308E-021  0.30768942500000002     
 chl2c          13  0.75666275000000005        3.7935816987997487E-002  0.75666275000000005        0.0000000000000000        1.1337104077887452E-005
 chl          13   7.5513293105615322E-021   9.9797820238428959E-021  0.75666275000000005     
 chl2c          14  0.39804095000000000        4.6856526101924839E-002  0.39804095000000000        0.0000000000000000        2.8566281150944949E-018
 chl          14   3.9721636020165455E-021   9.9792837948370518E-021  0.39804095000000000     
 chl2c          15  0.25607262500000000        2.0954299823745293E-002  0.25607262500000000        0.0000000000000000        5.4214062252000892E-016
 chl          15   2.5554213969638852E-021   9.9792837948370518E-021  0.25607262500000000     
 chl2c          16  0.71433214999999994        3.7823443882273475E-002  0.71433214999999994        0.0000000000000000        1.0906870326905410E-005
 chl          16   7.1288792593414221E-021   9.9797821774386361E-021  0.71433214999999994     
 chl2c          17  0.62580860000000005        3.7542254757581245E-002  0.62580860000000005        0.0000000000000000        8.5758733082715605E-016
 chl          17   6.2454331973266192E-021   9.9797816733848319E-021  0.62580860000000005     
 chl2c          18  0.47925950000000000        2.5694475239060960E-002  0.47925950000000000        0.0000000000000000        5.4145596941672587E-016
 chl          18   4.7826665618717082E-021   9.9792837948370518E-021  0.47925950000000000     
 chl2c          19  0.63367130000000005        3.7570220750293731E-002  0.63367130000000005        0.0000000000000000        3.9966233273556120E-006
 chl          19   6.3239016169486426E-021   9.9797822892541324E-021  0.63367130000000005     
 chl2c          20  0.50678202500000002        3.7020645196759419E-002  0.50678202500000002        0.0000000000000000        1.0659050586255978E-005
 chl          20   5.0575740508208201E-021   9.9797818417510360E-021  0.50678202500000002     
 chl2c          21  0.71973185000000006        3.7838475073783531E-002  0.71973185000000006        0.0000000000000000        8.4736454076178764E-006
 chl          21   7.1827672468400818E-021   9.9797823965134818E-021  0.71973185000000006     
 chl2c          22  0.64616892500000001        3.7613353106285476E-002  0.64616892500000001        0.0000000000000000        8.5758733082715605E-016
 chl          22   6.4486250872026479E-021   9.9797821246242189E-021  0.64616892500000001     
 chl2c          23  0.41564179999999995        3.2286562315070731E-002  0.41564179999999995        0.0000000000000000        3.7560085752570634E-009
 chl          23   4.1478074792185219E-021   9.9792837948890670E-021  0.41564179999999995     
 chl2c          24  0.57597492500000003        3.7348402796863071E-002  0.57597492500000003        0.0000000000000000        9.2306082709104790E-016
 chl          24   5.7481040008442035E-021   9.9797816733848319E-021  0.57597492500000003     
 chl2c          25  0.31406487500000002        4.5426679235459781E-002  0.31406487500000002        0.0000000000000000        2.8611105549759319E-009
 chl          25   3.1341425176270146E-021   9.9792837948752289E-021  0.31406487500000002     
 chl2c          26  0.49427735000000000        4.7955660680174553E-002  0.49427735000000000        0.0000000000000000        2.0311941660613348E-019
 chl          26   4.9325339490100017E-021   9.9792837948370518E-021  0.49427735000000000     
 chl2c          27  0.30964730000000001        4.5333133499525620E-002  0.30964730000000001        0.0000000000000000        2.8318797376234532E-018
 chl          27   3.0900582830050470E-021   9.9792837948370518E-021  0.30964730000000001     
 chl2c          28  0.28776342500000002        3.1209236063453518E-002  0.28776342500000002        0.0000000000000000        2.8142651299784888E-018
 chl          28   2.8716728838493075E-021   9.9792837948370518E-021  0.28776342500000002     
 chl2c          29  0.68676297499999994        3.7743217595736761E-002  0.68676297499999994        0.0000000000000000        9.2980812814173653E-016
 chl          29   6.8537445518759414E-021   9.9797816734018643E-021  0.68676297499999994     
 chl2c          30  0.38930277499999999        2.5380056985171612E-002  0.38930277499999999        0.0000000000000000        5.4246604847457408E-016
 chl          30   3.8849628738425946E-021   9.9792837948370518E-021  0.38930277499999999     
 chl2c          31  0.63559385000000002        3.7576959810037038E-002  0.63559385000000002        0.0000000000000000        9.3230715848668264E-016
 chl          31   6.3430878559461078E-021   9.9797816733848319E-021  0.63559385000000002     
 chl2c          32  0.24722667500000001        2.0893126428578448E-002  0.24722667500000001        0.0000000000000000        5.4263338926690642E-016
 chl          32   2.4671451522205035E-021   9.9792837978365538E-021  0.24722667500000001     
 chl2c          33  0.60343137499999999        3.7458922634011876E-002  0.60343137499999999        0.0000000000000000        3.0682806020123134E-006
 chl          33   6.0221137590439399E-021   9.9797823058901106E-021  0.60343137499999999     
 chl2c          34  0.38241020000000003        2.5350269098008315E-002  0.38241020000000003        0.0000000000000000        5.3754842857392567E-016
 chl          34   3.8161799118403964E-021   9.9792837948370518E-021  0.38241020000000003     
 chl2c          35  0.49574644999999995        2.5740370148566064E-002  0.49574644999999995        0.0000000000000000        5.3846217286140033E-016
 chl          35   4.9471945148329964E-021   9.9792837948370518E-021  0.49574644999999995     
 chl2c          36  0.69587337500000002        3.7770393924465726E-002  0.69587337500000002        0.0000000000000000        8.5758733082715605E-016
 chl          36   6.9446643548214501E-021   9.9797816733848319E-021  0.69587337500000002     
 chl2c          37  0.33194060000000003        2.1353674699533250E-002  0.33194060000000003        0.0000000000000000        5.3715256749383100E-016
 chl          37   3.3125294504284880E-021   9.9792837948370518E-021  0.33194060000000003     
 chl2c          38  0.38455722500000000        2.1543295686358745E-002  0.38455722500000000        0.0000000000000000        5.4268026562106686E-016
 chl          38   3.8376056836300061E-021   9.9792837948370518E-021  0.38455722500000000     
 chl2c          39  0.47091117500000002        2.5670077108751441E-002  0.47091117500000002        0.0000000000000000        5.4019731644880870E-016
 chl          39   4.6993562574851748E-021   9.9792837948370518E-021  0.47091117500000002     
 chl2c          40  0.66875547499999999        3.7687445774703773E-002  0.66875547499999999        0.0000000000000000        1.0905635231115625E-005
 chl          40   6.6740339595661877E-021   9.9797821611347379E-021  0.66875547499999999     
 chl2c          41  0.44304987499999998        2.5582381488167241E-002  0.44304987499999998        0.0000000000000000        6.8320286778815882E-006
 chl          41   4.4213204475678098E-021   9.9792838166759674E-021  0.44304987499999998     
 chl2c          42  0.76234377499999995        3.7949995630725070E-002  0.76234377499999995        0.0000000000000000        1.1864882731608113E-005
 chl          42   7.6080249078832006E-021   9.9797822942585199E-021  0.76234377499999995     
 chl2c          43  0.29539925000000000        2.1185090152268007E-002  0.29539925000000000        0.0000000000000000        2.8439627028445730E-006
 chl          43   2.9478729561848505E-021   9.9792838207437918E-021  0.29539925000000000     
 chl2c          44  0.62417262500000004        3.7536352708156646E-002  0.62417262500000004        0.0000000000000000        1.0127181949233313E-005
 chl          44   6.2291066058052436E-021   9.9797818044411086E-021  0.62417262500000004     
 chl2c          45  0.37662252499999999        4.6544927192009838E-002  0.37662252499999999        0.0000000000000000        2.7052906586127791E-019
 chl          45   3.7584230605031126E-021   9.9792837948370518E-021  0.37662252499999999     
 chl2c          46  0.51876034999999998        3.7083195475449568E-002  0.51876034999999998        0.0000000000000000        9.3227641374383021E-016
 chl          46   5.1771150338087013E-021   9.9797816733848334E-021  0.51876034999999998     
 chl2c          47  0.61962282499999999        3.7519784612651236E-002  0.61962282499999999        0.0000000000000000        1.2197584950297000E-006
 chl          47   6.1837005133459368E-021   9.9797816733848319E-021  0.61962282499999999     
 chl2c          48  0.71424949999999998        3.7823212136301673E-002  0.71424949999999998        0.0000000000000000        1.1737940358144073E-005
 chl          48   7.1280544167520824E-021   9.9797821584083478E-021  0.71424949999999998     
 chl2c          49  0.53276120000000005        3.7152990741888416E-002  0.53276120000000005        0.0000000000000000        1.6413166921603667E-006
 chl          49   5.3168404600505119E-021   9.9797816733848319E-021  0.53276120000000005     
 chl2c          50  0.38132569999999999        2.1533072915600981E-002  0.38132569999999999        0.0000000000000000        5.3934223437400534E-016
 chl          50   3.8053573840671883E-021   9.9792838092664319E-021  0.38132569999999999     
 chl2c          51  0.22275920000000002        2.0700971146093840E-002  0.22275920000000002        0.0000000000000000        5.4329249375036499E-016
 chl          51   2.2229772747108658E-021   9.9792837948370518E-021  0.22275920000000002     
 chl2c          52  0.63698869999999996        3.7581825176985564E-002  0.63698869999999996        0.0000000000000000        1.0723822477702344E-005
 chl          52   6.3570083949333404E-021   9.9797820509741240E-021  0.63698869999999996     
 chl2c          53  0.75269794999999995        3.7925801262726190E-002  0.75269794999999995        0.0000000000000000        1.0957802094963949E-005
 chl          53   7.5117616532661991E-021   9.9797822662678967E-021  0.75269794999999995     
 chl2c          54  0.51861124999999997        3.7082433371327092E-002  0.51861124999999997        0.0000000000000000        1.9473978023199028E-006
 chl          54   5.1756270483611994E-021   9.9797816733848319E-021  0.51861124999999997     
 chl2c          55  0.57808280000000001        3.7357235588660491E-002  0.57808280000000001        0.0000000000000000        9.3401116352703493E-016
 chl          55   5.7691403826971731E-021   9.9797821050845537E-021  0.57808280000000001     
 chl2c          56  0.61626080000000005        3.7507394187257688E-002  0.61626080000000005        0.0000000000000000        8.5758733082715605E-016
 chl          56   6.1501482378654755E-021   9.9797816733848319E-021  0.61626080000000005     
 chl2c          57  0.68163462500000005        3.7727617852646313E-002  0.68163462500000005        0.0000000000000000        9.3455680083653762E-016
 chl          57   6.8025647385195427E-021   9.9797816733848319E-021  0.68163462500000005     
 chl2c          58  0.69416802499999997        3.7765358178394853E-002  0.69416802499999997        0.0000000000000000        5.8574794481644076E-006
 chl          58   6.9276457889839138E-021   9.9797823286140482E-021  0.69416802499999997     
 chl2c          59  0.53705127500000005        3.7173699120809672E-002  0.53705127500000005        0.0000000000000000        1.1751260671763837E-005
 chl          59   5.3596547940055392E-021   9.9797822731275311E-021  0.53705127500000005     
 chl2c          60  0.64452155000000000        3.7607757740906807E-002  0.64452155000000000        0.0000000000000000        7.7744158395549752E-006
 chl          60   6.4321847842245363E-021   9.9797823427696664E-021  0.64452155000000000     
 chl2c          61  0.70794139999999994        3.7805373434125003E-002  0.70794139999999994        0.0000000000000000        9.3034457931488043E-016
 chl          61   7.0651006095504003E-021   9.9797816733848319E-021  0.70794139999999994     
 chl2c          62  0.76481592499999995        3.7956103087269030E-002  0.76481592499999995        0.0000000000000000        1.1647329733813564E-005
 chl          62   7.6326963399875260E-021   9.9797821809051972E-021  0.76481592499999995     
 chl2c          63  0.72597904999999996        3.7855601011927406E-002  0.72597904999999996        0.0000000000000000        7.5737924564044207E-007
 chl          63   7.2451128832800274E-021   9.9797823136632226E-021  0.72597904999999996     
 chl2c          64  0.48435739999999999        2.5708982294816416E-002  0.48435739999999999        0.0000000000000000        5.3497570470726383E-016
 chl          64   4.8335399527294080E-021   9.9792837948370518E-021  0.48435739999999999     
 chl2c          65  0.76379975000000000        3.7953597170552002E-002  0.76379975000000000        0.0000000000000000        1.0787915114869602E-005
 chl          65   7.6225552774107691E-021   9.9797823675783720E-021  0.76379975000000000     
 chl2c          66  0.35213202499999996        3.1840477731474713E-002  0.35213202499999996        0.0000000000000000        2.2247855592610520E-019
 chl          66   3.5140254107256548E-021   9.9792837948370518E-021  0.35213202499999996     
 chl2c          67  0.75736760000000003        3.7937587124568600E-002  0.75736760000000003        0.0000000000000000        1.8598167382002925E-006
 chl          67   7.5583632944954539E-021   9.9797816733848319E-021  0.75736760000000003     
 chl2c          68  0.72590779999999999        3.7855407263856986E-002  0.72590779999999999        0.0000000000000000        6.9820488621166803E-006
 chl          68   7.2444018484713287E-021   9.9797823476636124E-021  0.72590779999999999     
 chl2c          69  0.45524217500000003        2.1732330561541505E-002  0.45524217500000003        0.0000000000000000        5.3799169687243470E-016
 chl          69   4.5429908597038737E-021   9.9792837948370518E-021  0.45524217500000003     
 chl2c          70  0.48694062500000002        3.2658010878182209E-002  0.48694062500000002        0.0000000000000000        3.4801921122437289E-018
 chl          70   4.8593186881103257E-021   9.9792837948370518E-021  0.48694062500000002     
 chl2c          71  0.23986107500000001        4.3481058864416305E-002  0.23986107500000001        0.0000000000000000        2.7904014566455255E-009
 chl          71   2.3936417387736271E-021   9.9792837948951367E-021  0.23986107500000001     
 chl2c          72  0.62790522500000001        3.7549776402781669E-002  0.62790522500000001        0.0000000000000000        1.0483382942587109E-005
 chl          72   6.2663572414769806E-021   9.9797819670587714E-021  0.62790522500000001     
 chl2c          73  0.35362212500000001        3.1852614277819484E-002  0.35362212500000001        0.0000000000000000        2.7939726321810020E-019
 chl          73   3.5288955415083421E-021   9.9792837948370518E-021  0.35362212500000001     
 chl2c          74  0.64719590000000005        3.7616827685877569E-002  0.64719590000000005        0.0000000000000000        8.0062480964971097E-006
 chl          74   6.4588742197177401E-021   9.9797823498537920E-021  0.64719590000000005     
 chl2c          75  0.71554212500000003        3.7826830779512356E-002  0.71554212500000003        0.0000000000000000        8.5758733082715605E-016
 chl          75   7.1409541856098387E-021   9.9797816733848319E-021  0.71554212500000003     
 chl2c          76  0.55513977500000000        3.7257729557919804E-002  0.55513977500000000        0.0000000000000000        8.5758733082715605E-016
 chl          76   5.5401738319828229E-021   9.9797818161792183E-021  0.55513977500000000     
 chl2c          77  0.52973029999999999        3.7138172437479272E-002  0.52973029999999999        0.0000000000000000        1.0036001293347762E-005
 chl          77   5.2865930511393767E-021   9.9797822611607774E-021  0.52973029999999999     
 chl2c          78  0.45117492500000000        4.7515248899399322E-002  0.45117492500000000        0.0000000000000000        3.5925518438202025E-018
 chl          78   4.5024026176893225E-021   9.9792837948370518E-021  0.45117492500000000     
 prod   1.0099021074346785E-009   0.0000000000000000        10.000000000000000     
 chl2c           1  0.60826437499999997        3.7477407714772232E-002  0.60826437499999997        0.0000000000000000        9.0751790895071557E-006
 chl           1   1.0398231981120144E-020   1.7094921893329925E-020  0.60826437499999997     
 chl2c           2  0.48302390000000001        3.2640259920490348E-002  0.48302390000000001        0.0000000000000000        2.0310052869640620E-019
 chl           2   8.2583746320047951E-021   1.7097238111830068E-020  0.48302390000000001     
 chl2c           3  0.75128689999999998        3.7922212503796585E-002  0.75128689999999998        0.0000000000000000        8.8068949708603075E-016
 chl           3   1.2843190874978708E-020   1.7094921893325583E-020  0.75128689999999998     
 chl2c           4  0.77318742499999993        3.7976509103863923E-002  0.77318742499999993        0.0000000000000000        8.8068949708603075E-016
 chl           4   1.3217578639280188E-020   1.7094921893330313E-020  0.77318742499999993     
 chl2c           5  0.48489679999999996        2.5710500362372445E-002  0.48489679999999996        0.0000000000000000        5.3956939095154978E-016
 chl           5   8.2903960492644413E-021   1.7097238111830068E-020  0.48489679999999996     
 chl2c           6  0.29222855000000003        3.1261039902252048E-002  0.29222855000000003        0.0000000000000000        4.2594200853592088E-008
 chl           6   4.9963011024248409E-021   1.7097238111830074E-020  0.29222855000000003     
 chl2c           7  0.22770740000000000        4.3064391842467263E-002  0.22770740000000000        0.0000000000000000        1.9818415410921191E-019
 chl           7   3.8931676376257340E-021   1.7097238111830068E-020  0.22770740000000000     
 chl2c           8  0.49578364999999996        4.7969800906495587E-002  0.49578364999999996        0.0000000000000000        2.1058005389973361E-019
 chl           8   8.4765311160022192E-021   1.7097238111830068E-020  0.49578364999999996     
 chl2c           9  0.28700202499999999        2.4803669054600401E-002  0.28700202499999999        0.0000000000000000        5.4184060791368402E-016
 chl           9   4.9069419600024301E-021   1.7097238111830152E-020  0.28700202499999999     
 chl2c          10  0.39094662499999999        2.5387016219684602E-002  0.39094662499999999        0.0000000000000000        5.4184847155461469E-016
 chl          10   6.6841075366413374E-021   1.7097238111830068E-020  0.39094662499999999     
 chl2c          11  0.49737575000000001        2.1820572217820047E-002  0.49737575000000001        0.0000000000000000        5.4221100809266233E-016
 chl          11   8.5037516288000633E-021   1.7097238111830068E-020  0.49737575000000001     
 chl2c          12  0.30768942500000002        4.5290941298723353E-002  0.30768942500000002        0.0000000000000000        2.4597603274508525E-009
 chl          12   5.2606393637170797E-021   1.7097238111830068E-020  0.30768942500000002     
 chl2c          13  0.75666275000000005        3.7935816987997487E-002  0.75666275000000005        0.0000000000000000        1.1043109761754025E-005
 chl          13   1.2935090610840838E-020   1.7094921893328087E-020  0.75666275000000005     
 chl2c          14  0.39804095000000000        4.6856526101924839E-002  0.39804095000000000        0.0000000000000000        2.7313135825016013E-018
 chl          14   6.8054009004090459E-021   1.7097238111830068E-020  0.39804095000000000     
 chl2c          15  0.25607262500000000        2.0954299823745293E-002  0.25607262500000000        0.0000000000000000        5.4323441176044393E-016
 chl          15   4.3781346435463689E-021   1.7097238111830068E-020  0.25607262500000000     
 chl2c          16  0.71433214999999994        3.7823443882273475E-002  0.71433214999999994        0.0000000000000000        1.0477517102466683E-005
 chl          16   1.2211452310143907E-020   1.7094921893329185E-020  0.71433214999999994     
 chl2c          17  0.62580860000000005        3.7542254757581245E-002  0.62580860000000005        0.0000000000000000        2.8551421240231802E-006
 chl          17   1.0698149137171434E-020   1.7094921893325583E-020  0.62580860000000005     
 chl2c          18  0.47925950000000000        2.5694475239060960E-002  0.47925950000000000        0.0000000000000000        5.4264453429826459E-016
 chl          18   8.1940137888566216E-021   1.7097238111830068E-020  0.47925950000000000     
 chl2c          19  0.63367130000000005        3.7570220750293731E-002  0.63367130000000005        0.0000000000000000        1.3751697265902547E-007
 chl          19   1.0832561379544872E-020   1.7094921893329982E-020  0.63367130000000005     
 chl2c          20  0.50678202500000002        3.7020645196759419E-002  0.50678202500000002        0.0000000000000000        1.0917109614900223E-005
 chl          20   8.6633991343169811E-021   1.7094921893326784E-020  0.50678202500000002     
 chl2c          21  0.71973185000000006        3.7838475073783531E-002  0.71973185000000006        0.0000000000000000        4.1877203036430803E-006
 chl          21   1.2303759759892442E-020   1.7094921893330747E-020  0.71973185000000006     
 chl2c          22  0.64616892500000001        3.7613353106285476E-002  0.64616892500000001        0.0000000000000000        8.8068949708603075E-016
 chl          22   1.1046207302771239E-020   1.7094921893328806E-020  0.64616892500000001     
 chl2c          23  0.41564179999999995        3.2286562315070731E-002  0.41564179999999995        0.0000000000000000        3.4002330439670249E-009
 chl          23   7.1063268238296495E-021   1.7097238111830068E-020  0.41564179999999995     
 chl2c          24  0.57597492500000003        3.7348402796863071E-002  0.57597492500000003        0.0000000000000000        9.2824345745376530E-016
 chl          24   9.8462463553890595E-021   1.7094921893325580E-020  0.57597492500000003     
 chl2c          25  0.31406487500000002        4.5426679235459781E-002  0.31406487500000002        0.0000000000000000        2.5996138816106238E-009
 chl          25   5.3696419504371466E-021   1.7097238111830068E-020  0.31406487500000002     
 chl2c          26  0.49427735000000000        4.7955660680174553E-002  0.49427735000000000        0.0000000000000000        4.1849175470151444E-010
 chl          26   8.4507775462343693E-021   1.7097238111830068E-020  0.49427735000000000     
 chl2c          27  0.30964730000000001        4.5333133499525620E-002  0.30964730000000001        0.0000000000000000        2.7076457861964140E-018
 chl          27   5.2941136187852786E-021   1.7097238111830068E-020  0.30964730000000001     
 chl2c          28  0.28776342500000002        3.1209236063453518E-002  0.28776342500000002        0.0000000000000000        1.3333805236038815E-008
 chl          28   4.9199597971007536E-021   1.7097238111830068E-020  0.28776342500000002     
 chl2c          29  0.68676297499999994        3.7743217595736761E-002  0.68676297499999994        0.0000000000000000        9.3416871024983441E-016
 chl          29   1.1740159416852907E-020   1.7094921893325580E-020  0.68676297499999994     
 chl2c          30  0.38930277499999999        2.5380056985171612E-002  0.38930277499999999        0.0000000000000000        5.4351420580155897E-016
 chl          30   6.6560022417712051E-021   1.7097238111830068E-020  0.38930277499999999     
 chl2c          31  0.63559385000000002        3.7576959810037038E-002  0.63559385000000002        0.0000000000000000        9.3635862051815455E-016
 chl          31   1.0865427221628095E-020   1.7094921893325580E-020  0.63559385000000002     
 chl2c          32  0.24722667500000001        2.0893126428578448E-002  0.24722667500000001        0.0000000000000000        5.4365791847842805E-016
 chl          32   4.2268933300710307E-021   1.7097238111830086E-020  0.24722667500000001     
 chl2c          33  0.60343137499999999        3.7458922634011876E-002  0.60343137499999999        0.0000000000000000        9.2987446018487315E-016
 chl          33   1.0315612223609787E-020   1.7094921893330103E-020  0.60343137499999999     
 chl2c          34  0.38241020000000003        2.5350269098008315E-002  0.38241020000000003        0.0000000000000000        5.3925589185157247E-016
 chl          34   6.5381582457925593E-021   1.7097238111830068E-020  0.38241020000000003     
 chl2c          35  0.49574644999999995        2.5740370148566064E-002  0.49574644999999995        0.0000000000000000        5.4005086858274779E-016
 chl          35   8.4758950987444584E-021   1.7097238111830068E-020  0.49574644999999995     
 chl2c          36  0.69587337500000002        3.7770393924465726E-002  0.69587337500000002        0.0000000000000000        8.8068949708603075E-016
 chl          36   1.1895900993269863E-020   1.7094921893325583E-020  0.69587337500000002     
 chl2c          37  0.33194060000000003        2.1353674699533250E-002  0.33194060000000003        0.0000000000000000        5.3891111108345461E-016
 chl          37   5.6752674771837404E-021   1.7097238111830068E-020  0.33194060000000003     
 chl2c          38  0.38455722500000000        2.1543295686358745E-002  0.38455722500000000        0.0000000000000000        5.4369815506204586E-016
 chl          38   6.5748664434496107E-021   1.7097238111830068E-020  0.38455722500000000     
 chl2c          39  0.47091117500000002        2.5670077108751441E-002  0.47091117500000002        0.0000000000000000        5.4155653284337971E-016
 chl          39   8.0512804884966782E-021   1.7097238111830068E-020  0.47091117500000002     
 chl2c          40  0.66875547499999999        3.7687445774703773E-002  0.66875547499999999        0.0000000000000000        1.0477500696717428E-005
 chl          40   1.1432322610861179E-020   1.7094921893329068E-020  0.66875547499999999     
 chl2c          41  0.44304987499999998        2.5582381488167241E-002  0.44304987499999998        0.0000000000000000        6.0413273981725420E-006
 chl          41   7.5749292082916007E-021   1.7097238111830188E-020  0.44304987499999998     
 chl2c          42  0.76234377499999995        3.7949995630725070E-002  0.76234377499999995        0.0000000000000000        1.1112917454396445E-005
 chl          42   1.3032207289491353E-020   1.7094921893330019E-020  0.76234377499999995     
 chl2c          43  0.29539925000000000        2.1185090152268007E-002  0.29539925000000000        0.0000000000000000        5.4365999967722607E-016
 chl          43   5.0505113153060597E-021   1.7097238111830209E-020  0.29539925000000000     
 chl2c          44  0.62417262500000004        3.7536352708156646E-002  0.62417262500000004        0.0000000000000000        1.0707342315164290E-005
 chl          44   1.0670182272327584E-020   1.7094921893326519E-020  0.62417262500000004     
 chl2c          45  0.37662252499999999        4.6544927192009838E-002  0.37662252499999999        0.0000000000000000        2.6691177884480632E-019
 chl          45   6.4392049882036722E-021   1.7097238111830068E-020  0.37662252499999999     
 chl2c          46  0.51876034999999998        3.7083195475449568E-002  0.51876034999999998        0.0000000000000000        9.3633169585278237E-016
 chl          46   8.8681676646042400E-021   1.7094921893325580E-020  0.51876034999999998     
 chl2c          47  0.61962282499999999        3.7519784612651236E-002  0.61962282499999999        0.0000000000000000        4.9866739753477640E-006
 chl          47   1.0592403796696744E-020   1.7094921893325580E-020  0.61962282499999999     
 chl2c          48  0.71424949999999998        3.7823212136301673E-002  0.71424949999999998        0.0000000000000000        1.1126347283656127E-005
 chl          48   1.2210039414849324E-020   1.7094921893329047E-020  0.71424949999999998     
 chl2c          49  0.53276120000000005        3.7152990741888416E-002  0.53276120000000005        0.0000000000000000        5.4086791130853660E-006
 chl          49   9.1075111017944081E-021   1.7094921893325580E-020  0.53276120000000005     
 chl2c          50  0.38132569999999999        2.1533072915600981E-002  0.38132569999999999        0.0000000000000000        5.4081525732740931E-016
 chl          50   6.5196162910603096E-021   1.7097238111830149E-020  0.38132569999999999     
 chl2c          51  0.22275920000000002        2.0700971146093840E-002  0.22275920000000002        0.0000000000000000        5.4422274873907851E-016
 chl          51   3.8085670840007769E-021   1.7097238111830068E-020  0.22275920000000002     
 chl2c          52  0.63698869999999996        3.7581825176985564E-002  0.63698869999999996        0.0000000000000000        1.0466344125823899E-005
 chl          52   1.0889272073432720E-020   1.7094921893328282E-020  0.63698869999999996     
 chl2c          53  0.75269794999999995        3.7925801262726190E-002  0.75269794999999995        0.0000000000000000        1.0477594400698317E-005
 chl          53   1.2867312664519474E-020   1.7094921893329820E-020  0.75269794999999995     
 chl2c          54  0.51861124999999997        3.7082433371327092E-002  0.51861124999999997        0.0000000000000000        5.6910433643364614E-006
 chl          54   8.8656188117499444E-021   1.7094921893325580E-020  0.51861124999999997     
 chl2c          55  0.57808280000000001        3.7357235588660491E-002  0.57808280000000001        0.0000000000000000        9.3785019226537739E-016
 chl          55   9.8822803138767351E-021   1.7094921893328664E-020  0.57808280000000001     
 chl2c          56  0.61626080000000005        3.7507394187257688E-002  0.61626080000000005        0.0000000000000000        8.8068949708603075E-016
 chl          56   1.0534930241918340E-020   1.7094921893325583E-020  0.61626080000000005     
 chl2c          57  0.68163462500000005        3.7727617852646313E-002  0.68163462500000005        0.0000000000000000        9.3832750122837778E-016
 chl          57   1.1652490674161273E-020   1.7094921893325580E-020  0.68163462500000005     
 chl2c          58  0.69416802499999997        3.7765358178394853E-002  0.69416802499999997        0.0000000000000000        1.7354291514945505E-006
 chl          58   1.1866748168222330E-020   1.7094921893330265E-020  0.69416802499999997     
 chl2c          59  0.53705127500000005        3.7173699120809672E-002  0.53705127500000005        0.0000000000000000        1.0041426268546490E-005
 chl          59   9.1808495988382199E-021   1.7094921893329868E-020  0.53705127500000005     
 chl2c          60  0.64452155000000000        3.7607757740906807E-002  0.64452155000000000        0.0000000000000000        3.3838195852540132E-006
 chl          60   1.1018045555818222E-020   1.7094921893330365E-020  0.64452155000000000     
 chl2c          61  0.70794139999999994        3.7805373434125003E-002  0.70794139999999994        0.0000000000000000        9.3463903514461094E-016
 chl          61   1.2102202938051560E-020   1.7094921893325580E-020  0.70794139999999994     
 chl2c          62  0.76481592499999995        3.7956103087269030E-002  0.76481592499999995        0.0000000000000000        1.1032584424240287E-005
 chl          62   1.3074468500649329E-020   1.7094921893329209E-020  0.76481592499999995     
 chl2c          63  0.72597904999999996        3.7855601011927406E-002  0.72597904999999996        0.0000000000000000        8.8068949708603075E-016
 chl          63   1.2410555155944028E-020   1.7094921893330157E-020  0.72597904999999996     
 chl2c          64  0.48435739999999999        2.5708982294816416E-002  0.48435739999999999        0.0000000000000000        5.3701171872139867E-016
 chl          64   8.2811737990269211E-021   1.7097238111830068E-020  0.48435739999999999     
 chl2c          65  0.76379975000000000        3.7953597170552002E-002  0.76379975000000000        0.0000000000000000        9.4679885392142221E-006
 chl          65   1.3057097068395397E-020   1.7094921893330545E-020  0.76379975000000000     
 chl2c          66  0.35213202499999996        3.1840477731474713E-002  0.35213202499999996        0.0000000000000000        2.1950350388490523E-019
 chl          66   6.0204850782258974E-021   1.7097238111830068E-020  0.35213202499999996     
 chl2c          67  0.75736760000000003        3.7937587124568600E-002  0.75736760000000003        0.0000000000000000        5.6236681280436235E-006
 chl          67   1.2947139966535451E-020   1.7094921893325580E-020  0.75736760000000003     
 chl2c          68  0.72590779999999999        3.7855407263856986E-002  0.72590779999999999        0.0000000000000000        2.9243906530614291E-006
 chl          68   1.2409337142759308E-020   1.7094921893330404E-020  0.72590779999999999     
 chl2c          69  0.45524217500000003        2.1732330561541505E-002  0.45524217500000003        0.0000000000000000        5.3964170143809384E-016
 chl          69   7.7833838645224144E-021   1.7097238111830068E-020  0.45524217500000003     
 chl2c          70  0.48694062500000002        3.2658010878182209E-002  0.48694062500000002        0.0000000000000000        1.6817674105210777E-008
 chl          70   8.3253398119483533E-021   1.7097238111830068E-020  0.48694062500000002     
 chl2c          71  0.23986107500000001        4.3481058864416305E-002  0.23986107500000001        0.0000000000000000        1.5338457271078606E-009
 chl          71   4.1009619130345302E-021   1.7097238111830068E-020  0.23986107500000001     
 chl2c          72  0.62790522500000001        3.7549776402781669E-002  0.62790522500000001        0.0000000000000000        1.0432868702881684E-005
 chl          72   1.0733990777787343E-020   1.7094921893327680E-020  0.62790522500000001     
 chl2c          73  0.35362212500000001        3.1852614277819484E-002  0.35362212500000001        0.0000000000000000        2.7566145746637916E-019
 chl          73   6.0459616727363365E-021   1.7097238111830068E-020  0.35362212500000001     
 chl2c          74  0.64719590000000005        3.7616827685877569E-002  0.64719590000000005        0.0000000000000000        3.6041237529622295E-006
 chl          74   1.1063763360183684E-020   1.7094921893330416E-020  0.64719590000000005     
 chl2c          75  0.71554212500000003        3.7826830779512356E-002  0.71554212500000003        0.0000000000000000        8.8068949708603075E-016
 chl          75   1.2232136738259212E-020   1.7094921893325583E-020  0.71554212500000003     
 chl2c          76  0.55513977500000000        3.7257729557919804E-002  0.55513977500000000        0.0000000000000000        8.8068949708603075E-016
 chl          76   9.4900710935039045E-021   1.7094921893326603E-020  0.55513977500000000     
 chl2c          77  0.52973029999999999        3.7138172437479272E-002  0.52973029999999999        0.0000000000000000        6.5420817137193517E-006
 chl          77   9.0556981030301538E-021   1.7094921893329784E-020  0.52973029999999999     
 chl2c          78  0.45117492500000000        4.7515248899399322E-002  0.45117492500000000        0.0000000000000000        3.4351454563992187E-018
 chl          78   7.7138451228120730E-021   1.7097238111830068E-020  0.45117492500000000     
 prod   9.9639200355718365E-010   0.0000000000000000        10.000000000000000     
 chl2c           1  0.60826437499999997        3.7477407714772232E-002  0.60826437499999997        0.0000000000000000        3.6254889555294880E-006
 chl           1   7.5148473099600609E-016   1.2354574127343988E-015  0.60826437499999997     
 chl2c           2  0.48302390000000001        3.2640259920490348E-002  0.48302390000000001        0.0000000000000000        1.8682573625991062E-019
 chl           2   5.9692194946028847E-016   1.2358020989443555E-015  0.48302390000000001     
 chl2c           3  0.75128689999999998        3.7922212503796585E-002  0.75128689999999998        0.0000000000000000        1.2839058597847973E-006
 chl           3   9.2818296969524694E-016   1.2354574127343988E-015  0.75128689999999998     
 chl2c           4  0.77318742499999993        3.7976509103863923E-002  0.77318742499999993        0.0000000000000000        9.1266970458821219E-016
 chl           4   9.5524013564927186E-016   1.2354574127343988E-015  0.77318742499999993     
 chl2c           5  0.48489679999999996        2.5710500362372445E-002  0.48489679999999996        0.0000000000000000        5.3956939064782739E-016
 chl           5   5.9923648321140136E-016   1.2358020989443555E-015  0.48489679999999996     
 chl2c           6  0.29222855000000003        3.1261039902252048E-002  0.29222855000000003        0.0000000000000000        2.8613691597943789E-008
 chl           6   3.6113665546146558E-016   1.2358020989443555E-015  0.29222855000000003     
 chl2c           7  0.22770740000000000        4.3064391842467263E-002  0.22770740000000000        0.0000000000000000        1.8230318881210908E-019
 chl           7   2.8140128286516195E-016   1.2358020989443555E-015  0.22770740000000000     
 chl2c           8  0.49578364999999996        4.7969800906495587E-002  0.49578364999999996        0.0000000000000000        1.9370612505160529E-019
 chl           8   6.1269047529229369E-016   1.2358020989443555E-015  0.49578364999999996     
 chl2c           9  0.28700202499999999        2.4803669054600401E-002  0.28700202499999999        0.0000000000000000        5.4184060766851926E-016
 chl           9   3.5467770489628037E-016   1.2358020989443555E-015  0.28700202499999999     
 chl2c          10  0.39094662499999999        2.5387016219684602E-002  0.39094662499999999        0.0000000000000000        5.4184847130965346E-016
 chl          10   4.8313265975021187E-016   1.2358020989443555E-015  0.39094662499999999     
 chl2c          11  0.49737575000000001        2.1820572217820047E-002  0.49737575000000001        0.0000000000000000        7.0013996705613913E-007
 chl          11   6.1465799581402308E-016   1.2358020989443555E-015  0.49737575000000001     
 chl2c          12  0.30768942500000002        4.5290941298723353E-002  0.30768942500000002        0.0000000000000000        2.0188372074514377E-009
 chl          12   3.8024323723798187E-016   1.2358020989443555E-015  0.30768942500000002     
 chl2c          13  0.75666275000000005        3.7935816987997487E-002  0.75666275000000005        0.0000000000000000        9.8177009953526202E-006
 chl          13   9.3482460342749496E-016   1.2354574127343984E-015  0.75666275000000005     
 chl2c          14  0.39804095000000000        4.6856526101924839E-002  0.39804095000000000        0.0000000000000000        2.3751244384299858E-018
 chl          14   4.9189984147580532E-016   1.2358020989443555E-015  0.39804095000000000     
 chl2c          15  0.25607262500000000        2.0954299823745293E-002  0.25607262500000000        0.0000000000000000        5.4323441155146334E-016
 chl          15   3.1645508745719085E-016   1.2358020989443555E-015  0.25607262500000000     
 chl2c          16  0.71433214999999994        3.7823443882273475E-002  0.71433214999999994        0.0000000000000000        9.5538592242604190E-006
 chl          16   8.8252694987200044E-016   1.2354574127343988E-015  0.71433214999999994     
 chl2c          17  0.62580860000000005        3.7542254757581245E-002  0.62580860000000005        0.0000000000000000        7.6691445143134296E-006
 chl          17   7.7315987382293635E-016   1.2354574127343988E-015  0.62580860000000005     
 chl2c          18  0.47925950000000000        2.5694475239060960E-002  0.47925950000000000        0.0000000000000000        5.4264453407394736E-016
 chl          18   5.9226989603902238E-016   1.2358020989443555E-015  0.47925950000000000     
 chl2c          19  0.63367130000000005        3.7570220750293731E-002  0.63367130000000005        0.0000000000000000        9.1266970458821219E-016
 chl          19   7.8287390482204306E-016   1.2354574127343988E-015  0.63367130000000005     
 chl2c          20  0.50678202500000002        3.7020645196759419E-002  0.50678202500000002        0.0000000000000000        9.8509832368299017E-006
 chl          20   6.2610760942679924E-016   1.2354574127343984E-015  0.50678202500000002     
 chl2c          21  0.71973185000000006        3.7838475073783531E-002  0.71973185000000006        0.0000000000000000        9.3329205599399595E-016
 chl          21   8.8919804926354223E-016   1.2354574127343984E-015  0.71973185000000006     
 chl2c          22  0.64616892500000001        3.7613353106285476E-002  0.64616892500000001        0.0000000000000000        9.1266970458821219E-016
 chl          22   7.9831418826986778E-016   1.2354574127343988E-015  0.64616892500000001     
 chl2c          23  0.41564179999999995        3.2286562315070731E-002  0.41564179999999995        0.0000000000000000        1.7761014972764561E-009
 chl          23   5.1365100884900992E-016   1.2358020989443555E-015  0.41564179999999995     
 chl2c          24  0.57597492500000003        3.7348402796863071E-002  0.57597492500000003        0.0000000000000000        9.2824345651853618E-016
 chl          24   7.1159249064038923E-016   1.2354574127343984E-015  0.57597492500000003     
 chl2c          25  0.31406487500000002        4.5426679235459781E-002  0.31406487500000002        0.0000000000000000        1.4326737557664096E-009
 chl          25   3.8812203172969667E-016   1.2358020989443555E-015  0.31406487500000002     
 chl2c          26  0.49427735000000000        4.7955660680174553E-002  0.49427735000000000        0.0000000000000000        1.6706376047503045E-009
 chl          26   6.1082898659065380E-016   1.2358020989443555E-015  0.49427735000000000     
 chl2c          27  0.30964730000000001        4.5333133499525620E-002  0.30964730000000001        0.0000000000000000        1.6565060823379257E-008
 chl          27   3.8266278327245253E-016   1.2358020989443555E-015  0.30964730000000001     
 chl2c          28  0.28776342500000002        3.1209236063453518E-002  0.28776342500000002        0.0000000000000000        2.3324494993714814E-008
 chl          28   3.5561864461441667E-016   1.2358020989443555E-015  0.28776342500000002     
 chl2c          29  0.68676297499999994        3.7743217595736761E-002  0.68676297499999994        0.0000000000000000        9.3416870946242540E-016
 chl          29   8.4846640825527822E-016   1.2354574127343984E-015  0.68676297499999994     
 chl2c          30  0.38930277499999999        2.5380056985171612E-002  0.38930277499999999        0.0000000000000000        3.0475983013501278E-006
 chl          30   4.8110118646986219E-016   1.2358020989443555E-015  0.38930277499999999     
 chl2c          31  0.63559385000000002        3.7576959810037038E-002  0.63559385000000002        0.0000000000000000        9.3635861978587194E-016
 chl          31   7.8524913347089534E-016   1.2354574127343984E-015  0.63559385000000002     
 chl2c          32  0.24722667500000001        2.0893126428578448E-002  0.24722667500000001        0.0000000000000000        5.4365791828047948E-016
 chl          32   3.0552324388003405E-016   1.2358020989443555E-015  0.24722667500000001     
 chl2c          33  0.60343137499999999        3.7458922634011876E-002  0.60343137499999999        0.0000000000000000        9.2987445929013883E-016
 chl          33   7.4551376532026054E-016   1.2354574127343984E-015  0.60343137499999999     
 chl2c          34  0.38241020000000003        2.5350269098008315E-002  0.38241020000000003        0.0000000000000000        5.3925589153980655E-016
 chl          34   4.7258332781773086E-016   1.2358020989443555E-015  0.38241020000000003     
 chl2c          35  0.49574644999999995        2.5740370148566064E-002  0.49574644999999995        0.0000000000000000        5.4005086829139701E-016
 chl          35   6.1264450345421296E-016   1.2358020989443555E-015  0.49574644999999995     
 chl2c          36  0.69587337500000002        3.7770393924465726E-002  0.69587337500000002        0.0000000000000000        9.1266970458821219E-016
 chl          36   8.5972191946825405E-016   1.2354574127343988E-015  0.69587337500000002     
 chl2c          37  0.33194060000000003        2.1353674699533250E-002  0.33194060000000003        0.0000000000000000        5.3891111076285375E-016
 chl          37   4.1021289020484877E-016   1.2358020989443555E-015  0.33194060000000003     
 chl2c          38  0.38455722500000000        2.1543295686358745E-002  0.38455722500000000        0.0000000000000000        5.4369815486514637E-016
 chl          38   4.7523662581921679E-016   1.2358020989443555E-015  0.38455722500000000     
 chl2c          39  0.47091117500000002        2.5670077108751441E-002  0.47091117500000002        0.0000000000000000        5.4155653259086327E-016
 chl          39   5.8195301848135270E-016   1.2358020989443555E-015  0.47091117500000002     
 chl2c          40  0.66875547499999999        3.7687445774703773E-002  0.66875547499999999        0.0000000000000000        9.5550761722770829E-006
 chl          40   8.2621890889546392E-016   1.2354574127343988E-015  0.66875547499999999     
 chl2c          41  0.44304987499999998        2.5582381488167241E-002  0.44304987499999998        0.0000000000000000        2.2002388733126111E-006
 chl          41   5.4752196546203436E-016   1.2358020989443555E-015  0.44304987499999998     
 chl2c          42  0.76234377499999995        3.7949995630725070E-002  0.76234377499999995        0.0000000000000000        9.7003461813638826E-006
 chl          42   9.4184326787567424E-016   1.2354574127343984E-015  0.76234377499999995     
 chl2c          43  0.29539925000000000        2.1185090152268007E-002  0.29539925000000000        0.0000000000000000        5.4365999947933173E-016
 chl          43   3.6505501317658842E-016   1.2358020989443555E-015  0.29539925000000000     
 chl2c          44  0.62417262500000004        3.7536352708156646E-002  0.62417262500000004        0.0000000000000000        9.7800272571130565E-006
 chl          44   7.7113869638213793E-016   1.2354574127343984E-015  0.62417262500000004     
 chl2c          45  0.37662252499999999        4.6544927192009838E-002  0.37662252499999999        0.0000000000000000        2.4552596061529408E-019
 chl          45   4.6543090690472298E-016   1.2358020989443555E-015  0.37662252499999999     
 chl2c          46  0.51876034999999998        3.7083195475449568E-002  0.51876034999999998        0.0000000000000000        9.3633169511982054E-016
 chl          46   6.4090631984019095E-016   1.2354574127343984E-015  0.51876034999999998     
 chl2c          47  0.61962282499999999        3.7519784612651236E-002  0.61962282499999999        0.0000000000000000        8.7501486140865547E-006
 chl          47   7.6551761224567893E-016   1.2354574127343984E-015  0.61962282499999999     
 chl2c          48  0.71424949999999998        3.7823212136301673E-002  0.71424949999999998        0.0000000000000000        9.8376149958501245E-006
 chl          48   8.8242483931683765E-016   1.2354574127343984E-015  0.71424949999999998     
 chl2c          49  0.53276120000000005        3.7152990741888416E-002  0.53276120000000005        0.0000000000000000        8.8748971404944213E-006
 chl          49   6.5820377375727343E-016   1.2354574127343984E-015  0.53276120000000005     
 chl2c          50  0.38132569999999999        2.1533072915600981E-002  0.38132569999999999        0.0000000000000000        5.4081525705574632E-016
 chl          50   4.7124310044142563E-016   1.2358020989443555E-015  0.38132569999999999     
 chl2c          51  0.22275920000000002        2.0700971146093840E-002  0.22275920000000002        0.0000000000000000        5.4422274855587040E-016
 chl          51   2.7528628691916552E-016   1.2358020989443555E-015  0.22275920000000002     
 chl2c          52  0.63698869999999996        3.7581825176985564E-002  0.63698869999999996        0.0000000000000000        9.6057552093275579E-006
 chl          52   7.8697241124304807E-016   1.2354574127343988E-015  0.63698869999999996     
 chl2c          53  0.75269794999999995        3.7925801262726190E-002  0.75269794999999995        0.0000000000000000        9.3717484672918733E-006
 chl          53   9.2992626187748579E-016   1.2354574127343988E-015  0.75269794999999995     
 chl2c          54  0.51861124999999997        3.7082433371327092E-002  0.51861124999999997        0.0000000000000000        8.9324818899527379E-006
 chl          54   6.4072211313995227E-016   1.2354574127343984E-015  0.51861124999999997     
 chl2c          55  0.57808280000000001        3.7357235588660491E-002  0.57808280000000001        0.0000000000000000        9.3785019157079464E-016
 chl          55   7.1419668043425674E-016   1.2354574127343984E-015  0.57808280000000001     
 chl2c          56  0.61626080000000005        3.7507394187257688E-002  0.61626080000000005        0.0000000000000000        9.1266970458821219E-016
 chl          56   7.6136397353763084E-016   1.2354574127343988E-015  0.61626080000000005     
 chl2c          57  0.68163462500000005        3.7727617852646313E-002  0.68163462500000005        0.0000000000000000        9.3832750054588530E-016
 chl          57   8.4213055023268196E-016   1.2354574127343984E-015  0.68163462500000005     
 chl2c          58  0.69416802499999997        3.7765358178394853E-002  0.69416802499999997        0.0000000000000000        9.1266970458821219E-016
 chl          58   8.5761503216944739E-016   1.2354574127343988E-015  0.69416802499999997     
 chl2c          59  0.53705127500000005        3.7173699120809672E-002  0.53705127500000005        0.0000000000000000        4.5105744050353965E-006
 chl          59   6.6350397871721002E-016   1.2354574127343984E-015  0.53705127500000005     
 chl2c          60  0.64452155000000000        3.7607757740906807E-002  0.64452155000000000        0.0000000000000000        9.2749756491325136E-016
 chl          60   7.9627892661456417E-016   1.2354574127343984E-015  0.64452155000000000     
 chl2c          61  0.70794139999999994        3.7805373434125003E-002  0.70794139999999994        0.0000000000000000        1.3883341591969147E-006
 chl          61   8.7463145041156778E-016   1.2354574127343984E-015  0.70794139999999994     
 chl2c          62  0.76481592499999995        3.7956103087269030E-002  0.76481592499999995        0.0000000000000000        9.7487196990364478E-006
 chl          62   9.4489750391856566E-016   1.2354574127343984E-015  0.76481592499999995     
 chl2c          63  0.72597904999999996        3.7855601011927406E-002  0.72597904999999996        0.0000000000000000        9.1266970458821219E-016
 chl          63   8.9691619881237669E-016   1.2354574127343988E-015  0.72597904999999996     
 chl2c          64  0.48435739999999999        2.5708982294816416E-002  0.48435739999999999        0.0000000000000000        5.3701171835233345E-016
 chl          64   5.9856989155923081E-016   1.2358020989443555E-015  0.48435739999999999     
 chl2c          65  0.76379975000000000        3.7953597170552002E-002  0.76379975000000000        0.0000000000000000        4.5086277042750969E-006
 chl          65   9.4364206298218069E-016   1.2354574127343988E-015  0.76379975000000000     
 chl2c          66  0.35213202499999996        3.1840477731474713E-002  0.35213202499999996        0.0000000000000000        2.0191479472893581E-019
 chl          66   4.3516549560052623E-016   1.2358020989443555E-015  0.35213202499999996     
 chl2c          67  0.75736760000000003        3.7937587124568600E-002  0.75736760000000003        0.0000000000000000        8.9453075742885277E-006
 chl          67   9.3569541558486072E-016   1.2354574127343984E-015  0.75736760000000003     
 chl2c          68  0.72590779999999999        3.7855407263856986E-002  0.72590779999999999        0.0000000000000000        9.1266970458821219E-016
 chl          68   8.9682817247171949E-016   1.2354574127343988E-015  0.72590779999999999     
 chl2c          69  0.45524217500000003        2.1732330561541505E-002  0.45524217500000003        0.0000000000000000        5.3964170113622793E-016
 chl          69   5.6258923539299362E-016   1.2358020989443555E-015  0.45524217500000003     
 chl2c          70  0.48694062500000002        3.2658010878182209E-002  0.48694062500000002        0.0000000000000000        2.8910093236066668E-008
 chl          70   6.0176224643627632E-016   1.2358020989443555E-015  0.48694062500000002     
 chl2c          71  0.23986107500000001        4.3481058864416305E-002  0.23986107500000001        0.0000000000000000        2.2579758808103696E-019
 chl          71   2.9642081994004947E-016   1.2358020989443555E-015  0.23986107500000001     
 chl2c          72  0.62790522500000001        3.7549776402781669E-002  0.62790522500000001        0.0000000000000000        9.6116553730517770E-006
 chl          72   7.7575016472091058E-016   1.2354574127343988E-015  0.62790522500000001     
 chl2c          73  0.35362212500000001        3.1852614277819484E-002  0.35362212500000001        0.0000000000000000        2.5357490993688595E-019
 chl          73   4.3700696430816325E-016   1.2358020989443555E-015  0.35362212500000001     
 chl2c          74  0.64719590000000005        3.7616827685877569E-002  0.64719590000000005        0.0000000000000000        9.3433106326544470E-016
 chl          74   7.9958297214631049E-016   1.2354574127343984E-015  0.64719590000000005     
 chl2c          75  0.71554212500000003        3.7826830779512356E-002  0.71554212500000003        0.0000000000000000        9.1266970458821219E-016
 chl          75   8.8402182245497377E-016   1.2354574127343988E-015  0.71554212500000003     
 chl2c          76  0.55513977500000000        3.7257729557919804E-002  0.55513977500000000        0.0000000000000000        9.1266970458821219E-016
 chl          76   6.8585155012745627E-016   1.2354574127343988E-015  0.55513977500000000     
 chl2c          77  0.52973029999999999        3.7138172437479272E-002  0.52973029999999999        0.0000000000000000        9.2657697649063720E-016
 chl          77   6.5445922588501667E-016   1.2354574127343984E-015  0.52973029999999999     
 chl2c          78  0.45117492500000000        4.7515248899399322E-002  0.45117492500000000        0.0000000000000000        2.9876221374244525E-018
 chl          78   5.5756291930606213E-016   1.2358020989443555E-015  0.45117492500000000     
 prod   9.1652233565971574E-010   0.0000000000000000        10.000000000000000     
 chl2c           1  0.60826437499999997        3.7477407714772232E-002  0.60826437499999997        0.0000000000000000        9.3035873186596550E-016
 chl           1   1.5655971127882888E-010   2.5738760597121753E-010  0.60826437499999997     
 chl2c           2  0.48302390000000001        3.2640259920490348E-002  0.48302390000000001        0.0000000000000000        1.5152768589156053E-019
 chl           2   1.2435905132462703E-010   2.5745941624136410E-010  0.48302390000000001     
 chl2c           3  0.75128689999999998        3.7922212503796585E-002  0.75128689999999998        0.0000000000000000        5.9665614278725529E-006
 chl           3   1.9337193658853751E-010   2.5738760597121753E-010  0.75128689999999998     
 chl2c           4  0.77318742499999993        3.7976509103863923E-002  0.77318742499999993        0.0000000000000000        9.3035873186596550E-016
 chl           4   1.9900886028780029E-010   2.5738760597121753E-010  0.77318742499999993     
 chl2c           5  0.48489679999999996        2.5710500362372445E-002  0.48489679999999996        0.0000000000000000        5.3956938998279033E-016
 chl           5   1.2484124706530548E-010   2.5745941624136410E-010  0.48489679999999996     
 chl2c           6  0.29222855000000003        3.1261039902252048E-002  0.29222855000000003        0.0000000000000000        4.2456332323981774E-009
 chl           6   7.5236991892060283E-011   2.5745941624136410E-010  0.29222855000000003     
 chl2c           7  0.22770740000000000        4.3064391842467263E-002  0.22770740000000000        0.0000000000000000        1.4785937977830123E-019
 chl           7   5.8625414277838799E-011   2.5745941624136410E-010  0.22770740000000000     
 chl2c           8  0.49578364999999996        4.7969800906495587E-002  0.49578364999999996        0.0000000000000000        1.5710849433004388E-019
 chl           8   1.2764416911101276E-010   2.5745941624136410E-010  0.49578364999999996     
 chl2c           9  0.28700202499999999        2.4803669054600401E-002  0.28700202499999999        0.0000000000000000        5.4184060713170139E-016
 chl           9   7.3891373816589380E-011   2.5745941624136410E-010  0.28700202499999999     
 chl2c          10  0.39094662499999999        2.5387016219684602E-002  0.39094662499999999        0.0000000000000000        5.4184847077328159E-016
 chl          10   1.0065288985403148E-010   2.5745941624136410E-010  0.39094662499999999     
 chl2c          11  0.49737575000000001        2.1820572217820047E-002  0.49737575000000001        0.0000000000000000        4.1497319942279434E-006
 chl          11   1.2805407024761065E-010   2.5745941624136410E-010  0.49737575000000001     
 chl2c          12  0.30768942500000002        4.5290941298723353E-002  0.30768942500000002        0.0000000000000000        1.2689433201339206E-009
 chl          12   7.9217539744140978E-011   2.5745941624136410E-010  0.30768942500000002     
 chl2c          13  0.75666275000000005        3.7935816987997487E-002  0.75666275000000005        0.0000000000000000        8.4567091906854474E-006
 chl          13   1.9475561375009772E-010   2.5738760597121732E-010  0.75666275000000005     
 chl2c          14  0.39804095000000000        4.6856526101924839E-002  0.39804095000000000        0.0000000000000000        1.7708897109002675E-018
 chl          14   1.0247939062715800E-010   2.5745941624136410E-010  0.39804095000000000     
 chl2c          15  0.25607262500000000        2.0954299823745293E-002  0.25607262500000000        0.0000000000000000        5.4323441109387521E-016
 chl          15   6.5928308547893733E-011   2.5745941624136410E-010  0.25607262500000000     
 chl2c          16  0.71433214999999994        3.7823443882273475E-002  0.71433214999999994        0.0000000000000000        7.5473197161922601E-006
 chl          16   1.8386024195677265E-010   2.5738760597121753E-010  0.71433214999999994     
 chl2c          17  0.62580860000000005        3.7542254757581245E-002  0.62580860000000005        0.0000000000000000        8.5511339730075196E-006
 chl          17   1.6107537735019928E-010   2.5738760597121753E-010  0.62580860000000005     
 chl2c          18  0.47925950000000000        2.5694475239060960E-002  0.47925950000000000        0.0000000000000000        5.4264453358277761E-016
 chl          18   1.2338987109812803E-010   2.5745941624136410E-010  0.47925950000000000     
 chl2c          19  0.63367130000000005        3.7570220750293731E-002  0.63367130000000005        0.0000000000000000        9.2840727135043100E-016
 chl          19   1.6309913887966919E-010   2.5738760597121753E-010  0.63367130000000005     
 chl2c          20  0.50678202500000002        3.7020645196759419E-002  0.50678202500000002        0.0000000000000000        8.6734597469697269E-006
 chl          20   1.3043941216399560E-010   2.5738760597121732E-010  0.50678202500000002     
 chl2c          21  0.71973185000000006        3.7838475073783531E-002  0.71973185000000006        0.0000000000000000        9.3329205422171205E-016
 chl          21   1.8525005781273531E-010   2.5738760597121732E-010  0.71973185000000006     
 chl2c          22  0.64616892500000001        3.7613353106285476E-002  0.64616892500000001        0.0000000000000000        9.3035873186596550E-016
 chl          22   1.6631587265874521E-010   2.5738760597121753E-010  0.64616892500000001     
 chl2c          23  0.41564179999999995        3.2286562315070731E-002  0.41564179999999995        0.0000000000000000        2.1628388858511278E-019
 chl          23   1.0701089519350980E-010   2.5745941624136410E-010  0.41564179999999995     
 chl2c          24  0.57597492500000003        3.7348402796863071E-002  0.57597492500000003        0.0000000000000000        3.9819408258974434E-006
 chl          24   1.4824880704520146E-010   2.5738760597121732E-010  0.57597492500000003     
 chl2c          25  0.31406487500000002        4.5426679235459781E-002  0.31406487500000002        0.0000000000000000        1.6474419520972911E-019
 chl          25   8.0858959379416986E-011   2.5745941624136410E-010  0.31406487500000002     
 chl2c          26  0.49427735000000000        4.7955660680174553E-002  0.49427735000000000        0.0000000000000000        1.3961121904210063E-009
 chl          26   1.2725635799232840E-010   2.5745941624136410E-010  0.49427735000000000     
 chl2c          27  0.30964730000000001        4.5333133499525620E-002  0.30964730000000001        0.0000000000000000        1.6171616722526702E-008
 chl          27   7.9721613098714549E-011   2.5745941624136410E-010  0.30964730000000001     
 chl2c          28  0.28776342500000002        3.1209236063453518E-002  0.28776342500000002        0.0000000000000000        1.6306844570569107E-008
 chl          28   7.4087403416115566E-011   2.5745941624136410E-010  0.28776342500000002     
 chl2c          29  0.68676297499999994        3.7743217595736761E-002  0.68676297499999994        0.0000000000000000        9.3416870773829850E-016
 chl          29   1.7676427800492097E-010   2.5738760597121732E-010  0.68676297499999994     
 chl2c          30  0.38930277499999999        2.5380056985171612E-002  0.38930277499999999        0.0000000000000000        4.9026685972737831E-006
 chl          30   1.0022966519264311E-010   2.5745941624136410E-010  0.38930277499999999     
 chl2c          31  0.63559385000000002        3.7576959810037038E-002  0.63559385000000002        0.0000000000000000        9.3635861818245101E-016
 chl          31   1.6359397942152902E-010   2.5738760597121732E-010  0.63559385000000002     
 chl2c          32  0.24722667500000001        2.0893126428578448E-002  0.24722667500000001        0.0000000000000000        5.4365791784704705E-016
 chl          32   6.3650835424793452E-011   2.5745941624136410E-010  0.24722667500000001     
 chl2c          33  0.60343137499999999        3.7458922634011876E-002  0.60343137499999999        0.0000000000000000        9.2987445733101007E-016
 chl          33   1.5531575697916987E-010   2.5738760597121732E-010  0.60343137499999999     
 chl2c          34  0.38241020000000003        2.5350269098008315E-002  0.38241020000000003        0.0000000000000000        5.3925589085715758E-016
 chl          34   9.8455106856743305E-011   2.5745941624136410E-010  0.38241020000000003     
 chl2c          35  0.49574644999999995        2.5740370148566064E-002  0.49574644999999995        0.0000000000000000        2.6437918718744500E-006
 chl          35   1.2763459162072858E-010   2.5745941624136410E-010  0.49574644999999995     
 chl2c          36  0.69587337500000002        3.7770393924465726E-002  0.69587337500000002        0.0000000000000000        4.1336033600578058E-006
 chl          36   1.7910918205036131E-010   2.5738760597121753E-010  0.69587337500000002     
 chl2c          37  0.33194060000000003        2.1353674699533250E-002  0.33194060000000003        0.0000000000000000        5.3891111006085955E-016
 chl          37   8.5461233102808148E-011   2.5745941624136410E-010  0.33194060000000003     
 chl2c          38  0.38455722500000000        2.1543295686358745E-002  0.38455722500000000        0.0000000000000000        1.7434592125983591E-006
 chl          38   9.9007878659898913E-011   2.5745941624136410E-010  0.38455722500000000     
 chl2c          39  0.47091117500000002        2.5670077108751441E-002  0.47091117500000002        0.0000000000000000        2.9637300406548744E-007
 chl          39   1.2124051621703485E-010   2.5745941624136410E-010  0.47091117500000002     
 chl2c          40  0.66875547499999999        3.7687445774703773E-002  0.66875547499999999        0.0000000000000000        7.5578598633775479E-006
 chl          40   1.7212937069039442E-010   2.5738760597121753E-010  0.66875547499999999     
 chl2c          41  0.44304987499999998        2.5582381488167241E-002  0.44304987499999998        0.0000000000000000        5.3742533991003011E-016
 chl          41   1.1406736218330933E-010   2.5745941624136410E-010  0.44304987499999998     
 chl2c          42  0.76234377499999995        3.7949995630725070E-002  0.76234377499999995        0.0000000000000000        7.0425242920179058E-006
 chl          42   1.9621783917431034E-010   2.5738760597121732E-010  0.76234377499999995     
 chl2c          43  0.29539925000000000        2.1185090152268007E-002  0.29539925000000000        0.0000000000000000        5.4365999904601813E-016
 chl          43   7.6053318463136772E-011   2.5745941624136410E-010  0.29539925000000000     
 chl2c          44  0.62417262500000004        3.7536352708156646E-002  0.62417262500000004        0.0000000000000000        8.6467053056529640E-006
 chl          44   1.6065429766152040E-010   2.5738760597121732E-010  0.62417262500000004     
 chl2c          45  0.37662252499999999        4.6544927192009838E-002  0.37662252499999999        0.0000000000000000        1.9914135117349900E-019
 chl          45   9.6965015429848554E-011   2.5745941624136410E-010  0.37662252499999999     
 chl2c          46  0.51876034999999998        3.7083195475449568E-002  0.51876034999999998        0.0000000000000000        9.3633169351491202E-016
 chl          46   1.3352248455929079E-010   2.5738760597121732E-010  0.51876034999999998     
 chl2c          47  0.61962282499999999        3.7519784612651236E-002  0.61962282499999999        0.0000000000000000        8.7155118454421176E-006
 chl          47   1.5948323553187255E-010   2.5738760597121732E-010  0.61962282499999999     
 chl2c          48  0.71424949999999998        3.7823212136301673E-002  0.71424949999999998        0.0000000000000000        8.0671527600171645E-006
 chl          48   1.8383896887113899E-010   2.5738760597121732E-010  0.71424949999999998     
 chl2c          49  0.53276120000000005        3.7152990741888416E-002  0.53276120000000005        0.0000000000000000        8.6958267406879100E-006
 chl          49   1.3712612982235291E-010   2.5738760597121732E-010  0.53276120000000005     
 chl2c          50  0.38132569999999999        2.1533072915600981E-002  0.38132569999999999        0.0000000000000000        5.4081525646090753E-016
 chl          50   9.8175892119829530E-011   2.5745941624136410E-010  0.38132569999999999     
 chl2c          51  0.22275920000000002        2.0700971146093840E-002  0.22275920000000002        0.0000000000000000        2.0641922739361043E-006
 chl          51   5.7351453594393279E-011   2.5745941624136410E-010  0.22275920000000002     
 chl2c          52  0.63698869999999996        3.7581825176985564E-002  0.63698869999999996        0.0000000000000000        8.1996926925731573E-006
 chl          52   1.6395299652371809E-010   2.5738760597121753E-010  0.63698869999999996     
 chl2c          53  0.75269794999999995        3.7925801262726190E-002  0.75269794999999995        0.0000000000000000        6.4625818896430729E-006
 chl          53   1.9373512336994317E-010   2.5738760597121753E-010  0.75269794999999995     
 chl2c          54  0.51861124999999997        3.7082433371327092E-002  0.51861124999999997        0.0000000000000000        8.6587766691127773E-006
 chl          54   1.3348410806724046E-010   2.5738760597121732E-010  0.51861124999999997     
 chl2c          55  0.57808280000000001        3.7357235588660491E-002  0.57808280000000001        0.0000000000000000        9.3785019004992209E-016
 chl          55   1.4879134794513803E-010   2.5738760597121732E-010  0.57808280000000001     
 chl2c          56  0.61626080000000005        3.7507394187257688E-002  0.61626080000000005        0.0000000000000000        3.0163983113190269E-006
 chl          56   1.5861789196590730E-010   2.5738760597121753E-010  0.61626080000000005     
 chl2c          57  0.68163462500000005        3.7727617852646313E-002  0.68163462500000005        0.0000000000000000        9.3832749905148574E-016
 chl          57   1.7544430427583849E-010   2.5738760597121732E-010  0.68163462500000005     
 chl2c          58  0.69416802499999997        3.7765358178394853E-002  0.69416802499999997        0.0000000000000000        9.3035873186596550E-016
 chl          58   1.7867024609651827E-010   2.5738760597121753E-010  0.69416802499999997     
 chl2c          59  0.53705127500000005        3.7173699120809672E-002  0.53705127500000005        0.0000000000000000        9.3909807159422061E-016
 chl          59   1.3823034195603990E-010   2.5738760597121732E-010  0.53705127500000005     
 chl2c          60  0.64452155000000000        3.7607757740906807E-002  0.64452155000000000        0.0000000000000000        9.2749756282501250E-016
 chl          60   1.6589185875135825E-010   2.5738760597121732E-010  0.64452155000000000     
 chl2c          61  0.70794139999999994        3.7805373434125003E-002  0.70794139999999994        0.0000000000000000        6.0477209158856224E-006
 chl          61   1.8221534211391193E-010   2.5738760597121732E-010  0.70794139999999994     
 chl2c          62  0.76481592499999995        3.7956103087269030E-002  0.76481592499999995        0.0000000000000000        7.9291039637317849E-006
 chl          62   1.9685413994441208E-010   2.5738760597121732E-010  0.76481592499999995     
 chl2c          63  0.72597904999999996        3.7855601011927406E-002  0.72597904999999996        0.0000000000000000        9.2795587352671977E-016
 chl          63   1.8685800966475881E-010   2.5738760597121753E-010  0.72597904999999996     
 chl2c          64  0.48435739999999999        2.5708982294816416E-002  0.48435739999999999        0.0000000000000000        3.3471099529199801E-006
 chl          64   1.2470237345618487E-010   2.5745941624136410E-010  0.48435739999999999     
 chl2c          65  0.76379975000000000        3.7953597170552002E-002  0.76379975000000000        0.0000000000000000        9.3035873186596550E-016
 chl          65   1.9659258909391445E-010   2.5738760597121753E-010  0.76379975000000000     
 chl2c          66  0.35213202499999996        3.1840477731474713E-002  0.35213202499999996        0.0000000000000000        7.9276735734841296E-010
 chl          66   9.0659705596389420E-011   2.5745941624136410E-010  0.35213202499999996     
 chl2c          67  0.75736760000000003        3.7937587124568600E-002  0.75736760000000003        0.0000000000000000        8.6990900452390510E-006
 chl          67   1.9493703340416654E-010   2.5738760597121732E-010  0.75736760000000003     
 chl2c          68  0.72590779999999999        3.7855407263856986E-002  0.72590779999999999        0.0000000000000000        9.3035873186596550E-016
 chl          68   1.8683967079783338E-010   2.5738760597121753E-010  0.72590779999999999     
 chl2c          69  0.45524217500000003        2.1732330561541505E-002  0.45524217500000003        0.0000000000000000        5.3964170047525617E-016
 chl          69   1.1720638462394894E-010   2.5745941624136410E-010  0.45524217500000003     
 chl2c          70  0.48694062500000002        3.2658010878182209E-002  0.48694062500000002        0.0000000000000000        2.0173830117659935E-008
 chl          70   1.2536744905670499E-010   2.5745941624136410E-010  0.48694062500000002     
 chl2c          71  0.23986107500000001        4.3481058864416305E-002  0.23986107500000001        0.0000000000000000        1.8313881131126496E-019
 chl          71   6.1754492348526052E-011   2.5745941624136410E-010  0.23986107500000001     
 chl2c          72  0.62790522500000001        3.7549776402781669E-002  0.62790522500000001        0.0000000000000000        8.4384933174599575E-006
 chl          72   1.6161502263956870E-010   2.5738760597121753E-010  0.62790522500000001     
 chl2c          73  0.35362212500000001        3.1852614277819484E-002  0.35362212500000001        0.0000000000000000        1.5421931977584768E-010
 chl          73   9.1043345872530688E-011   2.5745941624136410E-010  0.35362212500000001     
 chl2c          74  0.64719590000000005        3.7616827685877569E-002  0.64719590000000005        0.0000000000000000        9.3433106155024652E-016
 chl          74   1.6658020329538739E-010   2.5738760597121732E-010  0.64719590000000005     
 chl2c          75  0.71554212500000003        3.7826830779512356E-002  0.71554212500000003        0.0000000000000000        4.6789776820885308E-006
 chl          75   1.8417167452530768E-010   2.5738760597121753E-010  0.71554212500000003     
 chl2c          76  0.55513977500000000        3.7257729557919804E-002  0.55513977500000000        0.0000000000000000        9.3035873186596550E-016
 chl          76   1.4288609766665037E-010   2.5738760597121753E-010  0.55513977500000000     
 chl2c          77  0.52973029999999999        3.7138172437479272E-002  0.52973029999999999        0.0000000000000000        9.2657697435257763E-016
 chl          77   1.3634601372741474E-010   2.5738760597121732E-010  0.52973029999999999     
 chl2c          78  0.45117492500000000        4.7515248899399322E-002  0.45117492500000000        0.0000000000000000        2.2281245985236404E-018
 chl          78   1.1615923281324124E-010   2.5745941624136410E-010  0.45117492500000000     
 prod   7.4331092964260193E-010   0.0000000000000000        10.000000000000000     
 chl2c           1  0.60826437499999997        3.7477407714772232E-002  0.60826437499999997        0.0000000000000000        9.3573065149395977E-016
 chl           1   7.4373231940781496E-010   1.2227122777128202E-009  0.60826437499999997     
 chl2c           2  0.48302390000000001        3.2640259920490348E-002  0.48302390000000001        0.0000000000000000        1.1021894412513567E-019
 chl           2   5.9069680994025377E-010   1.2229142490470011E-009  0.48302390000000001     
 chl2c           3  0.75128689999999998        3.7922212503796585E-002  0.75128689999999998        0.0000000000000000        7.1681676816445601E-006
 chl           3   9.1860771671480378E-010   1.2227122777128202E-009  0.75128689999999998     
 chl2c           4  0.77318742499999993        3.7976509103863923E-002  0.77318742499999993        0.0000000000000000        9.3825301909584378E-016
 chl           4   9.4538575752066023E-010   1.2227122777128202E-009  0.77318742499999993     
 chl2c           5  0.48489679999999996        2.5710500362372445E-002  0.48489679999999996        0.0000000000000000        5.3956938919677928E-016
 chl           5   5.9298720603729379E-010   1.2229142490470011E-009  0.48489679999999996     
 chl2c           6  0.29222855000000003        3.1261039902252048E-002  0.29222855000000003        0.0000000000000000        1.5878818101506418E-018
 chl           6   3.5737045777334405E-010   1.2229142490470011E-009  0.29222855000000003     
 chl2c           7  0.22770740000000000        4.3064391842467263E-002  0.22770740000000000        0.0000000000000000        1.0755047860747909E-019
 chl           7   2.7846662407344509E-010   1.2229142490470011E-009  0.22770740000000000     
 chl2c           8  0.49578364999999996        4.7969800906495587E-002  0.49578364999999996        0.0000000000000000        1.1427865522023298E-019
 chl           8   6.0630089002953117E-010   1.2229142490470011E-009  0.49578364999999996     
 chl2c           9  0.28700202499999999        2.4803669054600401E-002  0.28700202499999999        0.0000000000000000        5.4184060649723338E-016
 chl           9   3.5097886587784364E-010   1.2229142490470011E-009  0.28700202499999999     
 chl2c          10  0.39094662499999999        2.5387016219684602E-002  0.39094662499999999        0.0000000000000000        5.4184847013934054E-016
 chl          10   4.7809419832933447E-010   1.2229142490470011E-009  0.39094662499999999     
 chl2c          11  0.49737575000000001        2.1820572217820047E-002  0.49737575000000001        0.0000000000000000        4.5880234507408422E-006
 chl          11   6.0824789180543899E-010   1.2229142490470011E-009  0.49737575000000001     
 chl2c          12  0.30768942500000002        4.5290941298723353E-002  0.30768942500000002        0.0000000000000000        5.8820378835880689E-010
 chl          12   3.7627778211357856E-010   1.2229142490470011E-009  0.30768942500000002     
 chl2c          13  0.75666275000000005        3.7935816987997487E-002  0.75666275000000005        0.0000000000000000        7.2644046444109336E-006
 chl          13   9.2518083443519839E-010   1.2227122776100691E-009  0.75666275000000005     
 chl2c          14  0.39804095000000000        4.6856526101924839E-002  0.39804095000000000        0.0000000000000000        1.5751364475903146E-009
 chl          14   4.8676994945920488E-010   1.2229142490470011E-009  0.39804095000000000     
 chl2c          15  0.25607262500000000        2.0954299823745293E-002  0.25607262500000000        0.0000000000000000        5.4323441055304913E-016
 chl          15   3.1315486190336930E-010   1.2229142490470011E-009  0.25607262500000000     
 chl2c          16  0.71433214999999994        3.7823443882273475E-002  0.71433214999999994        0.0000000000000000        5.5527144297644133E-006
 chl          16   8.7342269016999591E-010   1.2227122777128202E-009  0.71433214999999994     
 chl2c          17  0.62580860000000005        3.7542254757581245E-002  0.62580860000000005        0.0000000000000000        8.2298583883034072E-006
 chl          17   7.6518385871827130E-010   1.2227122777128202E-009  0.62580860000000005     
 chl2c          18  0.47925950000000000        2.5694475239060960E-002  0.47925950000000000        0.0000000000000000        1.3385898416842526E-006
 chl          18   5.8609327154114117E-010   1.2229142490470011E-009  0.47925950000000000     
 chl2c          19  0.63367130000000005        3.7570220750293731E-002  0.63367130000000005        0.0000000000000000        9.2840726894063665E-016
 chl          19   7.7479767854424387E-010   1.2227122777128202E-009  0.63367130000000005     
 chl2c          20  0.50678202500000002        3.7020645196759419E-002  0.50678202500000002        0.0000000000000000        7.8266981718110724E-006
 chl          20   6.1964860403959297E-010   1.2227122776100691E-009  0.50678202500000002     
 chl2c          21  0.71973185000000006        3.7838475073783531E-002  0.71973185000000006        0.0000000000000000        9.3329205212703963E-016
 chl          21   8.8002496958200862E-010   1.2227122776100691E-009  0.71973185000000006     
 chl2c          22  0.64616892500000001        3.7613353106285476E-002  0.64616892500000001        0.0000000000000000        9.3808824337827252E-016
 chl          22   7.9007867807399446E-010   1.2227122777128202E-009  0.64616892500000001     
 chl2c          23  0.41564179999999995        3.2286562315070731E-002  0.41564179999999995        0.0000000000000000        1.5732666600292829E-019
 chl          23   5.0829427971954374E-010   1.2229142490470011E-009  0.41564179999999995     
 chl2c          24  0.57597492500000003        3.7348402796863071E-002  0.57597492500000003        0.0000000000000000        5.8744379919065958E-006
 chl          24   7.0425161239303874E-010   1.2227122776100691E-009  0.57597492500000003     
 chl2c          25  0.31406487500000002        4.5426679235459781E-002  0.31406487500000002        0.0000000000000000        1.1983321646840213E-019
 chl          25   3.8407441076266528E-010   1.2229142490470011E-009  0.31406487500000002     
 chl2c          26  0.49427735000000000        4.7955660680174553E-002  0.49427735000000000        0.0000000000000000        9.5524964709621852E-010
 chl          26   6.0445881429619172E-010   1.2229142490470011E-009  0.49427735000000000     
 chl2c          27  0.30964730000000001        4.5333133499525620E-002  0.30964730000000001        0.0000000000000000        1.0533471339755431E-008
 chl          27   3.7867209534893148E-010   1.2229142490470011E-009  0.30964730000000001     
 chl2c          28  0.28776342500000002        3.1209236063453518E-002  0.28776342500000002        0.0000000000000000        1.0457397490350058E-008
 chl          28   3.5190999278706801E-010   1.2229142490470011E-009  0.28776342500000002     
 chl2c          29  0.68676297499999994        3.7743217595736761E-002  0.68676297499999994        0.0000000000000000        9.3416870570054299E-016
 chl          29   8.3971352134051686E-010   1.2227122776100691E-009  0.68676297499999994     
 chl2c          30  0.38930277499999999        2.5380056985171612E-002  0.38930277499999999        0.0000000000000000        4.7651311892347296E-006
 chl          30   4.7608391074103856E-010   1.2229142490470011E-009  0.38930277499999999     
 chl2c          31  0.63559385000000002        3.7576959810037038E-002  0.63559385000000002        0.0000000000000000        9.3635861628735882E-016
 chl          31   7.7714840396845261E-010   1.2227122776100691E-009  0.63559385000000002     
 chl2c          32  0.24722667500000001        2.0893126428578448E-002  0.24722667500000001        0.0000000000000000        5.4365791733477094E-016
 chl          32   3.0233702360201198E-010   1.2229142490470011E-009  0.24722667500000001     
 chl2c          33  0.60343137499999999        3.7458922634011876E-002  0.60343137499999999        0.0000000000000000        9.2987445501550491E-016
 chl          33   7.3782295090762563E-010   1.2227122776100691E-009  0.60343137499999999     
 chl2c          34  0.38241020000000003        2.5350269098008315E-002  0.38241020000000003        0.0000000000000000        5.3925589005033077E-016
 chl          34   4.6765488256091350E-010   1.2229142490470011E-009  0.38241020000000003     
 chl2c          35  0.49574644999999995        2.5740370148566064E-002  0.49574644999999995        0.0000000000000000        3.9412088718964439E-006
 chl          35   6.0625539761946655E-010   1.2229142490470011E-009  0.49574644999999995     
 chl2c          36  0.69587337500000002        3.7770393924465726E-002  0.69587337500000002        0.0000000000000000        5.9874233449882109E-006
 chl          36   8.5085291934595749E-010   1.2227122777128202E-009  0.69587337500000002     
 chl2c          37  0.33194060000000003        2.1353674699533250E-002  0.33194060000000003        0.0000000000000000        2.4830592945942102E-007
 chl          37   4.0593488957721101E-010   1.2229142490470011E-009  0.33194060000000003     
 chl2c          38  0.38455722500000000        2.1543295686358745E-002  0.38455722500000000        0.0000000000000000        3.4160600102049386E-006
 chl          38   4.7028051002647366E-010   1.2229142490470011E-009  0.38455722500000000     
 chl2c          39  0.47091117500000002        2.5670077108751441E-002  0.47091117500000002        0.0000000000000000        2.2084379784348890E-006
 chl          39   5.7588398594296589E-010   1.2229142490470011E-009  0.47091117500000002     
 chl2c          40  0.66875547499999999        3.7687445774703773E-002  0.66875547499999999        0.0000000000000000        5.5704263371718869E-006
 chl          40   8.1769553007016893E-010   1.2227122777128202E-009  0.66875547499999999     
 chl2c          41  0.44304987499999998        2.5582381488167241E-002  0.44304987499999998        0.0000000000000000        5.3742533898215219E-016
 chl          41   5.4181200517599265E-010   1.2229142490470011E-009  0.44304987499999998     
 chl2c          42  0.76234377499999995        3.7949995630725070E-002  0.76234377499999995        0.0000000000000000        4.6898095654711623E-006
 chl          42   9.3212709345210804E-010   1.2227122776100691E-009  0.76234377499999995     
 chl2c          43  0.29539925000000000        2.1185090152268007E-002  0.29539925000000000        0.0000000000000000        5.4365999853388243E-016
 chl          43   3.6124795198279731E-010   1.2229142490470011E-009  0.29539925000000000     
 chl2c          44  0.62417262500000004        3.7536352708156646E-002  0.62417262500000004        0.0000000000000000        7.9082572594375173E-006
 chl          44   7.6318353193560558E-010   1.2227122776100691E-009  0.62417262500000004     
 chl2c          45  0.37662252499999999        4.6544927192009838E-002  0.37662252499999999        0.0000000000000000        1.4485581571372524E-019
 chl          45   4.6057705233456039E-010   1.2229142490470011E-009  0.37662252499999999     
 chl2c          46  0.51876034999999998        3.7083195475449568E-002  0.51876034999999998        0.0000000000000000        9.3633169161806146E-016
 chl          46   6.3429464908229659E-010   1.2227122776100691E-009  0.51876034999999998     
 chl2c          47  0.61962282499999999        3.7519784612651236E-002  0.61962282499999999        0.0000000000000000        8.2275095717739532E-006
 chl          47   7.5762043561493526E-010   1.2227122776100691E-009  0.61962282499999999     
 chl2c          48  0.71424949999999998        3.7823212136301673E-002  0.71424949999999998        0.0000000000000000        6.3881444845724832E-006
 chl          48   8.7332163292685303E-010   1.2227122776100691E-009  0.71424949999999998     
 chl2c          49  0.53276120000000005        3.7152990741888416E-002  0.53276120000000005        0.0000000000000000        8.1975807812164217E-006
 chl          49   6.5141366027427354E-010   1.2227122776100691E-009  0.53276120000000005     
 chl2c          50  0.38132569999999999        2.1533072915600981E-002  0.38132569999999999        0.0000000000000000        5.4081525575786404E-016
 chl          50   4.6632863205782196E-010   1.2229142490470011E-009  0.38132569999999999     
 chl2c          51  0.22275920000000002        2.0700971146093840E-002  0.22275920000000002        0.0000000000000000        3.6263082719583144E-006
 chl          51   2.7241539978631072E-010   1.2229142490470011E-009  0.22275920000000002     
 chl2c          52  0.63698869999999996        3.7581825176985564E-002  0.63698869999999996        0.0000000000000000        6.7652438855370789E-006
 chl          52   7.7885390425432829E-010   1.2227122777128202E-009  0.63698869999999996     
 chl2c          53  0.75269794999999995        3.7925801262726190E-002  0.75269794999999995        0.0000000000000000        3.9139753722885030E-006
 chl          53   9.2033302487427041E-010   1.2227122777128202E-009  0.75269794999999995     
 chl2c          54  0.51861124999999997        3.7082433371327092E-002  0.51861124999999997        0.0000000000000000        8.1562112244059583E-006
 chl          54   6.3411234268170494E-010   1.2227122776100691E-009  0.51861124999999997     
 chl2c          55  0.57808280000000001        3.7357235588660491E-002  0.57808280000000001        0.0000000000000000        9.3785018825239424E-016
 chl          55   7.0682893703520608E-010   1.2227122776100691E-009  0.57808280000000001     
 chl2c          56  0.61626080000000005        3.7507394187257688E-002  0.61626080000000005        0.0000000000000000        5.2150280106290336E-006
 chl          56   7.5350964643312483E-010   1.2227122777128202E-009  0.61626080000000005     
 chl2c          57  0.68163462500000005        3.7727617852646313E-002  0.68163462500000005        0.0000000000000000        9.3832749728524629E-016
 chl          57   8.3344302483163535E-010   1.2227122776100691E-009  0.68163462500000005     
 chl2c          58  0.69416802499999997        3.7765358178394853E-002  0.69416802499999997        0.0000000000000000        9.3738648700367108E-016
 chl          58   8.4876776696315987E-010   1.2227122777128202E-009  0.69416802499999997     
 chl2c          59  0.53705127500000005        3.7173699120809672E-002  0.53705127500000005        0.0000000000000000        9.3909806987856311E-016
 chl          59   6.5665918764864160E-010   1.2227122776100691E-009  0.53705127500000005     
 chl2c          60  0.64452155000000000        3.7607757740906807E-002  0.64452155000000000        0.0000000000000000        9.2749756035691088E-016
 chl          60   7.8806441236927199E-010   1.2227122776100691E-009  0.64452155000000000     
 chl2c          61  0.70794139999999994        3.7805373434125003E-002  0.70794139999999994        0.0000000000000000        7.1718443588647197E-006
 chl          61   8.6560864160846088E-010   1.2227122776100691E-009  0.70794139999999994     
 chl2c          62  0.76481592499999995        3.7956103087269030E-002  0.76481592499999995        0.0000000000000000        6.2021868416666061E-006
 chl          62   9.3514982160920176E-010   1.2227122776100691E-009  0.76481592499999995     
 chl2c          63  0.72597904999999996        3.7855601011927406E-002  0.72597904999999996        0.0000000000000000        9.2795587108797857E-016
 chl          63   8.8766349779728937E-010   1.2227122777128202E-009  0.72597904999999996     
 chl2c          64  0.48435739999999999        2.5708982294816416E-002  0.48435739999999999        0.0000000000000000        4.2626598910072990E-006
 chl          64   5.9232756609135787E-010   1.2229142490470011E-009  0.48435739999999999     
 chl2c          65  0.76379975000000000        3.7953597170552002E-002  0.76379975000000000        0.0000000000000000        9.3121357836070833E-016
 chl          65   9.3390733203898266E-010   1.2227122777128202E-009  0.76379975000000000     
 chl2c          66  0.35213202499999996        3.1840477731474713E-002  0.35213202499999996        0.0000000000000000        8.6586940731874987E-010
 chl          66   4.3062727091827473E-010   1.2229142490470011E-009  0.35213202499999996     
 chl2c          67  0.75736760000000003        3.7937587124568600E-002  0.75736760000000003        0.0000000000000000        8.1960357850082464E-006
 chl          67   9.2604266318407181E-010   1.2227122776100691E-009  0.75736760000000003     
 chl2c          68  0.72590779999999999        3.7855407263856986E-002  0.72590779999999999        0.0000000000000000        9.3825301909584378E-016
 chl          68   8.8757637954750238E-010   1.2227122777128202E-009  0.72590779999999999     
 chl2c          69  0.45524217500000003        2.1732330561541505E-002  0.45524217500000003        0.0000000000000000        5.3964169969405008E-016
 chl          69   5.5672214257464850E-010   1.2229142490470011E-009  0.45524217500000003     
 chl2c          70  0.48694062500000002        3.2658010878182209E-002  0.48694062500000002        0.0000000000000000        1.2938226845138780E-008
 chl          70   5.9548662875235238E-010   1.2229142490470011E-009  0.48694062500000002     
 chl2c          71  0.23986107500000001        4.3481058864416305E-002  0.23986107500000001        0.0000000000000000        1.3321448156790467E-019
 chl          71   2.9332952640923138E-010   1.2229142490470011E-009  0.23986107500000001     
 chl2c          72  0.62790522500000001        3.7549776402781669E-002  0.62790522500000001        0.0000000000000000        7.3082939429811541E-006
 chl          72   7.6774742784753086E-010   1.2227122777128202E-009  0.62790522500000001     
 chl2c          73  0.35362212500000001        3.1852614277819484E-002  0.35362212500000001        0.0000000000000000        6.4044049556804565E-010
 chl          73   4.3244953544077977E-010   1.2229142490470011E-009  0.35362212500000001     
 chl2c          74  0.64719590000000005        3.7616827685877569E-002  0.64719590000000005        0.0000000000000000        9.3433105952304399E-016
 chl          74   7.9133437294889860E-010   1.2227122776100691E-009  0.64719590000000005     
 chl2c          75  0.71554212500000003        3.7826830779512356E-002  0.71554212500000003        0.0000000000000000        6.3542071145763520E-006
 chl          75   8.7490214145822157E-010   1.2227122777128202E-009  0.71554212500000003     
 chl2c          76  0.55513977500000000        3.7257729557919804E-002  0.55513977500000000        0.0000000000000000        9.3441788253907178E-016
 chl          76   6.7877621873923253E-010   1.2227122777128202E-009  0.55513977500000000     
 chl2c          77  0.52973029999999999        3.7138172437479272E-002  0.52973029999999999        0.0000000000000000        9.2657697182559287E-016
 chl          77   6.4770774163206518E-010   1.2227122776100691E-009  0.52973029999999999     
 chl2c          78  0.45117492500000000        4.7515248899399322E-002  0.45117492500000000        0.0000000000000000        1.5227470914096834E-018
 chl          78   5.5174824459521205E-010   1.2229142490470011E-009  0.45117492500000000     
 prod   5.4063258235255867E-010   0.0000000000000000        10.000000000000000     
 chl2c           1  0.60826437499999997        3.7477407714772232E-002  0.60826437499999997        0.0000000000000000        9.3573064859319398E-016
 chl           1   2.0410572703198938E-010   3.3555430076270599E-010  0.60826437499999997     
 chl2c           2  0.48302390000000001        3.2640259920490348E-002  0.48302390000000001        0.0000000000000000        4.8802538755020585E-020
 chl           2   1.6202096501165889E-010   3.3543053462087258E-010  0.48302390000000001     
 chl2c           3  0.75128689999999998        3.7922212503796585E-002  0.75128689999999998        0.0000000000000000        7.3531430347833666E-006
 chl           3   2.5209755040168101E-010   3.3555430076270599E-010  0.75128689999999998     
 chl2c           4  0.77318742499999993        3.7976509103863923E-002  0.77318742499999993        0.0000000000000000        9.3841762853436547E-016
 chl           4   2.5944636575439214E-010   3.3555430076270599E-010  0.77318742499999993     
 chl2c           5  0.48489679999999996        2.5710500362372445E-002  0.48489679999999996        0.0000000000000000        5.3956938801911960E-016
 chl           5   1.6264919285995030E-010   3.3543053462087258E-010  0.48489679999999996     
 chl2c           6  0.29222855000000003        3.1261039902252048E-002  0.29222855000000003        0.0000000000000000        6.4974515083710962E-019
 chl           6   9.8022378757982409E-011   3.3543053462087258E-010  0.29222855000000003     
 chl2c           7  0.22770740000000000        4.3064391842467263E-002  0.22770740000000000        0.0000000000000000        4.7620872063003649E-020
 chl           7   7.6380014919128879E-011   3.3543053462087258E-010  0.22770740000000000     
 chl2c           8  0.49578364999999996        4.7969800906495587E-002  0.49578364999999996        0.0000000000000000        5.0600297799528611E-020
 chl           8   1.6630097477578756E-010   3.3543053462087258E-010  0.49578364999999996     
 chl2c           9  0.28700202499999999        2.4803669054600401E-002  0.28700202499999999        0.0000000000000000        5.4184060554662660E-016
 chl           9   9.6269242683023035E-011   3.3543053462087258E-010  0.28700202499999999     
 chl2c          10  0.39094662499999999        2.5387016219684602E-002  0.39094662499999999        0.0000000000000000        5.4184846918952322E-016
 chl          10   1.3113543543197577E-010   3.3543053462087258E-010  0.39094662499999999     
 chl2c          11  0.49737575000000001        2.1820572217820047E-002  0.49737575000000001        0.0000000000000000        4.5799002678489085E-006
 chl          11   1.6683501372995747E-010   3.3543053462087258E-010  0.49737575000000001     
 chl2c          12  0.30768942500000002        4.5290941298723353E-002  0.30768942500000002        0.0000000000000000        1.9116254244462989E-010
 chl          12   1.0320842832493889E-010   3.3543053462087258E-010  0.30768942500000002     
 chl2c          13  0.75666275000000005        3.7935816987997487E-002  0.75666275000000005        0.0000000000000000        6.6762401092545972E-006
 chl          13   2.5390143998805538E-010   3.3555430076088107E-010  0.75666275000000005     
 chl2c          14  0.39804095000000000        4.6856526101924839E-002  0.39804095000000000        0.0000000000000000        1.2760599945362688E-009
 chl          14   1.3351508865950002E-010   3.3543053462087258E-010  0.39804095000000000     
 chl2c          15  0.25607262500000000        2.0954299823745293E-002  0.25607262500000000        0.0000000000000000        5.4323440974274353E-016
 chl          15   8.5894577505520225E-011   3.3543053462087258E-010  0.25607262500000000     
 chl2c          16  0.71433214999999994        3.7823443882273475E-002  0.71433214999999994        0.0000000000000000        4.6388162045784298E-006
 chl          16   2.3969722510557038E-010   3.3555430076270599E-010  0.71433214999999994     
 chl2c          17  0.62580860000000005        3.7542254757581245E-002  0.62580860000000005        0.0000000000000000        8.0532685585945851E-006
 chl          17   2.0999276718428797E-010   3.3555430076270599E-010  0.62580860000000005     
 chl2c          18  0.47925950000000000        2.5694475239060960E-002  0.47925950000000000        0.0000000000000000        2.0206711107168804E-006
 chl          18   1.6075827030713208E-010   3.3543053462087258E-010  0.47925950000000000     
 chl2c          19  0.63367130000000005        3.7570220750293731E-002  0.63367130000000005        0.0000000000000000        9.2840726533010489E-016
 chl          19   2.1263112998489492E-010   3.3555430076270599E-010  0.63367130000000005     
 chl2c          20  0.50678202500000002        3.7020645196759419E-002  0.50678202500000002        0.0000000000000000        7.4097147743106493E-006
 chl          20   1.7005288803705835E-010   3.3555430076088107E-010  0.50678202500000002     
 chl2c          21  0.71973185000000006        3.7838475073783531E-002  0.71973185000000006        0.0000000000000000        9.3329204898864684E-016
 chl          21   2.4150911766208534E-010   3.3555430076088107E-010  0.71973185000000006     
 chl2c          22  0.64616892500000001        3.7613353106285476E-002  0.64616892500000001        0.0000000000000000        9.3808824070845798E-016
 chl          22   2.1682476180296442E-010   3.3555430076270599E-010  0.64616892500000001     
 chl2c          23  0.41564179999999995        3.2286562315070731E-002  0.41564179999999995        0.0000000000000000        6.9664126649494722E-020
 chl          23   1.3941895118478177E-010   3.3543053462087258E-010  0.41564179999999995     
 chl2c          24  0.57597492500000003        3.7348402796863071E-002  0.57597492500000003        0.0000000000000000        6.3264262019759638E-006
 chl          24   1.9327086321417594E-010   3.3555430076088107E-010  0.57597492500000003     
 chl2c          25  0.31406487500000002        4.5426679235459781E-002  0.31406487500000002        0.0000000000000000        5.3060044213192414E-020
 chl          25   1.0534694892688753E-010   3.3543053462087258E-010  0.31406487500000002     
 chl2c          26  0.49427735000000000        4.7955660680174553E-002  0.49427735000000000        0.0000000000000000        4.1324526905193559E-010
 chl          26   1.6579571576148815E-010   3.3543053462087258E-010  0.49427735000000000     
 chl2c          27  0.30964730000000001        4.5333133499525620E-002  0.30964730000000001        0.0000000000000000        4.2118327338757910E-009
 chl          27   1.0386515938290973E-010   3.3543053462087258E-010  0.30964730000000001     
 chl2c          28  0.28776342500000002        3.1209236063453518E-002  0.28776342500000002        0.0000000000000000        4.1633751278262022E-009
 chl          28   9.6524639492083377E-011   3.3543053462087258E-010  0.28776342500000002     
 chl2c          29  0.68676297499999994        3.7743217595736761E-002  0.68676297499999994        0.0000000000000000        9.3416870264742725E-016
 chl          29   2.3044626986458743E-010   3.3555430076088107E-010  0.68676297499999994     
 chl2c          30  0.38930277499999999        2.5380056985171612E-002  0.38930277499999999        0.0000000000000000        4.6645662366551843E-006
 chl          30   1.3058403794763926E-010   3.3543053462087258E-010  0.38930277499999999     
 chl2c          31  0.63559385000000002        3.7576959810037038E-002  0.63559385000000002        0.0000000000000000        9.3635861344799185E-016
 chl          31   2.1327624990466633E-010   3.3555430076088107E-010  0.63559385000000002     
 chl2c          32  0.24722667500000001        2.0893126428578448E-002  0.24722667500000001        0.0000000000000000        5.4365791656724103E-016
 chl          32   8.2927375767790720E-011   3.3543053462087258E-010  0.24722667500000001     
 chl2c          33  0.60343137499999999        3.7458922634011876E-002  0.60343137499999999        0.0000000000000000        9.2987445154624374E-016
 chl          33   2.0248399309530202E-010   3.3555430076088107E-010  0.60343137499999999     
 chl2c          34  0.38241020000000003        2.5350269098008315E-002  0.38241020000000003        0.0000000000000000        5.3925588884148327E-016
 chl          34   1.2827205783047481E-010   3.3543053462087258E-010  0.38241020000000003     
 chl2c          35  0.49574644999999995        2.5740370148566064E-002  0.49574644999999995        0.0000000000000000        4.1661968241924683E-006
 chl          35   1.6628849675989967E-010   3.3543053462087258E-010  0.49574644999999995     
 chl2c          36  0.69587337500000002        3.7770393924465726E-002  0.69587337500000002        0.0000000000000000        6.4219266962233725E-006
 chl          36   2.3350330376750927E-010   3.3555430076270599E-010  0.69587337500000002     
 chl2c          37  0.33194060000000003        2.1353674699533250E-002  0.33194060000000003        0.0000000000000000        9.1430096680362705E-007
 chl          37   1.1134301292037323E-010   3.3543053462087258E-010  0.33194060000000003     
 chl2c          38  0.38455722500000000        2.1543295686358745E-002  0.38455722500000000        0.0000000000000000        3.7942020298003416E-006
 chl          38   1.2899223557406918E-010   3.3543053462087258E-010  0.38455722500000000     
 chl2c          39  0.47091117500000002        2.5670077108751441E-002  0.47091117500000002        0.0000000000000000        2.8085373832074571E-006
 chl          39   1.5795798718919329E-010   3.3543053462087258E-010  0.47091117500000002     
 chl2c          40  0.66875547499999999        3.7687445774703773E-002  0.66875547499999999        0.0000000000000000        4.6586340887800425E-006
 chl          40   2.2440377579485629E-010   3.3555430076270599E-010  0.66875547499999999     
 chl2c          41  0.44304987499999998        2.5582381488167241E-002  0.44304987499999998        0.0000000000000000        5.3742533759193709E-016
 chl          41   1.4861245643496076E-010   3.3543053462087258E-010  0.44304987499999998     
 chl2c          42  0.76234377499999995        3.7949995630725070E-002  0.76234377499999995        0.0000000000000000        3.7002727435733912E-006
 chl          42   2.5580773235953543E-010   3.3555430076088107E-010  0.76234377499999995     
 chl2c          43  0.29539925000000000        2.1185090152268007E-002  0.29539925000000000        0.0000000000000000        5.4365999776656285E-016
 chl          43   9.9085928354104794E-011   3.3543053462087258E-010  0.29539925000000000     
 chl2c          44  0.62417262500000004        3.7536352708156646E-002  0.62417262500000004        0.0000000000000000        7.5523769682189718E-006
 chl          44   2.0944380873595865E-010   3.3555430076088107E-010  0.62417262500000004     
 chl2c          45  0.37662252499999999        4.6544927192009838E-002  0.37662252499999999        0.0000000000000000        6.4141234823698469E-020
 chl          45   1.2633069491101293E-010   3.3543053462087258E-010  0.37662252499999999     
 chl2c          46  0.51876034999999998        3.7083195475449568E-002  0.51876034999999998        0.0000000000000000        9.3633168877606008E-016
 chl          46   1.7407226650671994E-010   3.3555430076088107E-010  0.51876034999999998     
 chl2c          47  0.61962282499999999        3.7519784612651236E-002  0.61962282499999999        0.0000000000000000        8.0414662196339385E-006
 chl          47   2.0791710377835677E-010   3.3555430076088107E-010  0.61962282499999999     
 chl2c          48  0.71424949999999998        3.7823212136301673E-002  0.71424949999999998        0.0000000000000000        5.6003382947732341E-006
 chl          48   2.3966949154130891E-010   3.3555430076088107E-010  0.71424949999999998     
 chl2c          49  0.53276120000000005        3.7152990741888416E-002  0.53276120000000005        0.0000000000000000        8.0118093465434605E-006
 chl          49   1.7877031193852794E-010   3.3555430076088107E-010  0.53276120000000005     
 chl2c          50  0.38132569999999999        2.1533072915600981E-002  0.38132569999999999        0.0000000000000000        5.4081525470451227E-016
 chl          50   1.2790828341567847E-010   3.3543053462087258E-010  0.38132569999999999     
 chl2c          51  0.22275920000000002        2.0700971146093840E-002  0.22275920000000002        0.0000000000000000        3.9520823567651941E-006
 chl          51   7.4720237547717878E-011   3.3543053462087258E-010  0.22275920000000002     
 chl2c          52  0.63698869999999996        3.7581825176985564E-002  0.63698869999999996        0.0000000000000000        6.0450039466178583E-006
 chl          52   2.1374429782224508E-010   3.3555430076270599E-010  0.63698869999999996     
 chl2c          53  0.75269794999999995        3.7925801262726190E-002  0.75269794999999995        0.0000000000000000        2.8829860039740912E-006
 chl          53   2.5257103429777220E-010   3.3555430076270599E-010  0.75269794999999995     
 chl2c          54  0.51861124999999997        3.7082433371327092E-002  0.51861124999999997        0.0000000000000000        7.9712491386914603E-006
 chl          54   1.7402223536047648E-010   3.3555430076088107E-010  0.51861124999999997     
 chl2c          55  0.57808280000000001        3.7357235588660491E-002  0.57808280000000001        0.0000000000000000        9.3785018555920536E-016
 chl          55   1.9397816973589227E-010   3.3555430076088107E-010  0.57808280000000001     
 chl2c          56  0.61626080000000005        3.7507394187257688E-002  0.61626080000000005        0.0000000000000000        5.7959972479773303E-006
 chl          56   2.0678896183146583E-010   3.3555430076270599E-010  0.61626080000000005     
 chl2c          57  0.68163462500000005        3.7727617852646313E-002  0.68163462500000005        0.0000000000000000        9.3832749463893626E-016
 chl          57   2.2872542996628040E-010   3.3555430076088107E-010  0.68163462500000005     
 chl2c          58  0.69416802499999997        3.7765358178394853E-002  0.69416802499999997        0.0000000000000000        9.3738648426498681E-016
 chl          58   2.3293106624070359E-010   3.3555430076270599E-010  0.69416802499999997     
 chl2c          59  0.53705127500000005        3.7173699120809672E-002  0.53705127500000005        0.0000000000000000        9.3909806730803836E-016
 chl          59   1.8020986505536466E-010   3.3555430076088107E-010  0.53705127500000005     
 chl2c          60  0.64452155000000000        3.7607757740906807E-002  0.64452155000000000        0.0000000000000000        9.2749755665901908E-016
 chl          60   2.1627197803556924E-010   3.3555430076088107E-010  0.64452155000000000     
 chl2c          61  0.70794139999999994        3.7805373434125003E-002  0.70794139999999994        0.0000000000000000        7.3485683398561960E-006
 chl          61   2.3755278145667917E-010   3.3555430076088107E-010  0.70794139999999994     
 chl2c          62  0.76481592499999995        3.7956103087269030E-002  0.76481592499999995        0.0000000000000000        5.3986246985058285E-006
 chl          62   2.5663727292416142E-010   3.3555430076088107E-010  0.76481592499999995     
 chl2c          63  0.72597904999999996        3.7855601011927406E-002  0.72597904999999996        0.0000000000000000        9.2795586743407642E-016
 chl          63   2.4360539249112358E-010   3.3555430076270599E-010  0.72597904999999996     
 chl2c          64  0.48435739999999999        2.5708982294816416E-002  0.48435739999999999        0.0000000000000000        4.3704491288289251E-006
 chl          64   1.6246826162957583E-010   3.3543053462087258E-010  0.48435739999999999     
 chl2c          65  0.76379975000000000        3.7953597170552002E-002  0.76379975000000000        0.0000000000000000        9.3121357502079215E-016
 chl          65   2.5629629103397964E-010   3.3555430076270599E-010  0.76379975000000000     
 chl2c          66  0.35213202499999996        3.1840477731474713E-002  0.35213202499999996        0.0000000000000000        4.0583824086752711E-010
 chl          66   1.1811583340288046E-010   3.3543053462087258E-010  0.35213202499999996     
 chl2c          67  0.75736760000000003        3.7937587124568600E-002  0.75736760000000003        0.0000000000000000        8.0101997169089919E-006
 chl          67   2.5413795543694668E-010   3.3555430076088107E-010  0.75736760000000003     
 chl2c          68  0.72590779999999999        3.7855407263856986E-002  0.72590779999999999        0.0000000000000000        9.3841762853436547E-016
 chl          68   2.4358148424719424E-010   3.3555430076270599E-010  0.72590779999999999     
 chl2c          69  0.45524217500000003        2.1732330561541505E-002  0.45524217500000003        0.0000000000000000        5.3964169852358905E-016
 chl          69   1.5270212614221884E-010   3.3543053462087258E-010  0.45524217500000003     
 chl2c          70  0.48694062500000002        3.2658010878182209E-002  0.48694062500000002        0.0000000000000000        5.1510456128782663E-009
 chl          70   1.6333475417237184E-010   3.3543053462087258E-010  0.48694062500000002     
 chl2c          71  0.23986107500000001        4.3481058864416305E-002  0.23986107500000001        0.0000000000000000        5.8985831623385498E-020
 chl          71   8.0456728621987215E-011   3.3543053462087258E-010  0.23986107500000001     
 chl2c          72  0.62790522500000001        3.7549776402781669E-002  0.62790522500000001        0.0000000000000000        6.7166934285599598E-006
 chl          72   2.1069629872012457E-010   3.3555430076270599E-010  0.62790522500000001     
 chl2c          73  0.35362212500000001        3.1852614277819484E-002  0.35362212500000001        0.0000000000000000        3.5513855981222713E-010
 chl          73   1.1861565844251902E-010   3.3543053462087258E-010  0.35362212500000001     
 chl2c          74  0.64719590000000005        3.7616827685877569E-002  0.64719590000000005        0.0000000000000000        9.3433105648573959E-016
 chl          74   2.1716936767980912E-010   3.3555430076088107E-010  0.64719590000000005     
 chl2c          75  0.71554212500000003        3.7826830779512356E-002  0.71554212500000003        0.0000000000000000        6.7164025115681635E-006
 chl          75   2.4010323742063577E-010   3.3555430076270599E-010  0.71554212500000003     
 chl2c          76  0.55513977500000000        3.7257729557919804E-002  0.55513977500000000        0.0000000000000000        9.3441787951022515E-016
 chl          76   1.8627953902569094E-010   3.3555430076270599E-010  0.55513977500000000     
 chl2c          77  0.52973029999999999        3.7138172437479272E-002  0.52973029999999999        0.0000000000000000        9.2657696803947763E-016
 chl          77   1.7775328040835176E-010   3.3555430076088107E-010  0.52973029999999999     
 chl2c          78  0.45117492500000000        4.7515248899399322E-002  0.45117492500000000        0.0000000000000000        6.2305636528424859E-019
 chl          78   1.5133784630028210E-010   3.3543053462087258E-010  0.45117492500000000     
 prod   2.3935361023278621E-010   0.0000000000000000        10.000000000000000     
 chl2c           1  0.60826437499999997        3.7477407714772232E-002  0.60826437499999997        0.0000000000000000        9.3573064859117371E-016
 chl           1   2.0402953148288283E-010   3.3542903360546612E-010  0.60826437499999997     
 chl2c           2  0.48302390000000001        3.2640259920490348E-002  0.48302390000000001        0.0000000000000000        4.8795340685282900E-020
 chl           2   1.6202023835424671E-010   3.3542903022862163E-010  0.48302390000000001     
 chl2c           3  0.75128689999999998        3.7922212503796585E-002  0.75128689999999998        0.0000000000000000        7.3531455656591906E-006
 chl           3   2.5200343882744644E-010   3.3542903360546612E-010  0.75128689999999998     
 chl2c           4  0.77318742499999993        3.7976509103863923E-002  0.77318742499999993        0.0000000000000000        9.3841762548638423E-016
 chl           4   2.5934951076364878E-010   3.3542903360546612E-010  0.77318742499999993     
 chl2c           5  0.48489679999999996        2.5710500362372445E-002  0.48489679999999996        0.0000000000000000        5.3956938801829929E-016
 chl           5   1.6264846338496187E-010   3.3542903022862163E-010  0.48489679999999996     
 chl2c           6  0.29222855000000003        3.1261039902252048E-002  0.29222855000000003        0.0000000000000000        6.4973350040725966E-019
 chl           6   9.8021939131616277E-011   3.3542903022862163E-010  0.29222855000000003     
 chl2c           7  0.22770740000000000        4.3064391842467263E-002  0.22770740000000000        0.0000000000000000        4.7613848266666366E-020
 chl           7   7.6379672357880833E-011   3.3542903022862163E-010  0.22770740000000000     
 chl2c           8  0.49578364999999996        4.7969800906495587E-002  0.49578364999999996        0.0000000000000000        5.0592834595899796E-020
 chl           8   1.6630022892270636E-010   3.3542903022862163E-010  0.49578364999999996     
 chl2c           9  0.28700202499999999        2.4803669054600401E-002  0.28700202499999999        0.0000000000000000        5.4184060554596455E-016
 chl           9   9.6268810919400619E-011   3.3542903022862163E-010  0.28700202499999999     
 chl2c          10  0.39094662499999999        2.5387016219684602E-002  0.39094662499999999        0.0000000000000000        5.4184846918886176E-016
 chl          10   1.3113484729490261E-010   3.3542903022862163E-010  0.39094662499999999     
 chl2c          11  0.49737575000000001        2.1820572217820047E-002  0.49737575000000001        0.0000000000000000        4.5798995642465854E-006
 chl          11   1.6683426548173335E-010   3.3542903022862163E-010  0.49737575000000001     
 chl2c          12  0.30768942500000002        4.5290941298723353E-002  0.30768942500000002        0.0000000000000000        1.9113296864314060E-010
 chl          12   1.0320796543935221E-010   3.3542903022862163E-010  0.30768942500000002     
 chl2c          13  0.75666275000000005        3.7935816987997487E-002  0.75666275000000005        0.0000000000000000        6.6762278822669042E-006
 chl          13   2.5380665499637691E-010   3.3542903360364560E-010  0.75666275000000005     
 chl2c          14  0.39804095000000000        4.6856526101924839E-002  0.39804095000000000        0.0000000000000000        1.2760492280859785E-009
 chl          14   1.3351448984977928E-010   3.3542903022862163E-010  0.39804095000000000     
 chl2c          15  0.25607262500000000        2.0954299823745293E-002  0.25607262500000000        0.0000000000000000        5.4323440974217930E-016
 chl          15   8.5894192271847483E-011   3.3542903022862163E-010  0.25607262500000000     
 chl2c          16  0.71433214999999994        3.7823443882273475E-002  0.71433214999999994        0.0000000000000000        4.6387978904772786E-006
 chl          16   2.3960774274781487E-010   3.3542903360546612E-010  0.71433214999999994     
 chl2c          17  0.62580860000000005        3.7542254757581245E-002  0.62580860000000005        0.0000000000000000        8.0532650434670175E-006
 chl          17   2.0991437391998972E-010   3.3542903360546612E-010  0.62580860000000005     
 chl2c          18  0.47925950000000000        2.5694475239060960E-002  0.47925950000000000        0.0000000000000000        2.0206837000098338E-006
 chl          18   1.6075754931285408E-010   3.3542903022862163E-010  0.47925950000000000     
 chl2c          19  0.63367130000000005        3.7570220750293731E-002  0.63367130000000005        0.0000000000000000        9.2840726532759040E-016
 chl          19   2.1255175178251941E-010   3.3542903360546612E-010  0.63367130000000005     
 chl2c          20  0.50678202500000002        3.7020645196759419E-002  0.50678202500000002        0.0000000000000000        7.4097060213994024E-006
 chl          20   1.6998940489344858E-010   3.3542903360364560E-010  0.50678202500000002     
 chl2c          21  0.71973185000000006        3.7838475073783531E-002  0.71973185000000006        0.0000000000000000        9.3329204898646130E-016
 chl          21   2.4141895889926404E-010   3.3542903360364560E-010  0.71973185000000006     
 chl2c          22  0.64616892500000001        3.7613353106285476E-002  0.64616892500000001        0.0000000000000000        9.3808824070659863E-016
 chl          22   2.1674381805863293E-010   3.3542903360546612E-010  0.64616892500000001     
 chl2c          23  0.41564179999999995        3.2286562315070731E-002  0.41564179999999995        0.0000000000000000        6.9653852014704486E-020
 chl          23   1.3941832589647868E-010   3.3542903022862163E-010  0.41564179999999995     
 chl2c          24  0.57597492500000003        3.7348402796863071E-002  0.57597492500000003        0.0000000000000000        6.3264336528807396E-006
 chl          24   1.9319871247268228E-010   3.3542903360364560E-010  0.57597492500000003     
 chl2c          25  0.31406487500000002        4.5426679235459781E-002  0.31406487500000002        0.0000000000000000        5.3052218248435058E-020
 chl          25   1.0534647645012328E-010   3.3542903022862163E-010  0.31406487500000002     
 chl2c          26  0.49427735000000000        4.7955660680174553E-002  0.49427735000000000        0.0000000000000000        4.1318412834045479E-010
 chl          26   1.6579497217447300E-010   3.3542903022862163E-010  0.49427735000000000     
 chl2c          27  0.30964730000000001        4.5333133499525620E-002  0.30964730000000001        0.0000000000000000        4.2117553526123767E-009
 chl          27   1.0386469355191108E-010   3.3542903022862163E-010  0.30964730000000001     
 chl2c          28  0.28776342500000002        3.1209236063453518E-002  0.28776342500000002        0.0000000000000000        4.1632981058385391E-009
 chl          28   9.6524206583016701E-011   3.3542903022862163E-010  0.28776342500000002     
 chl2c          29  0.68676297499999994        3.7743217595736761E-002  0.68676297499999994        0.0000000000000000        9.3416870264530107E-016
 chl          29   2.3036024101901460E-010   3.3542903360364560E-010  0.68676297499999994     
 chl2c          30  0.38930277499999999        2.5380056985171612E-002  0.38930277499999999        0.0000000000000000        4.6645642235879659E-006
 chl          30   1.3058345228356127E-010   3.3542903022862163E-010  0.38930277499999999     
 chl2c          31  0.63559385000000002        3.7576959810037038E-002  0.63559385000000002        0.0000000000000000        9.3635861344601437E-016
 chl          31   2.1319663086992050E-010   3.3542903360364560E-010  0.63559385000000002     
 chl2c          32  0.24722667500000001        2.0893126428578448E-002  0.24722667500000001        0.0000000000000000        5.4365791656670648E-016
 chl          32   8.2927003841896621E-011   3.3542903022862163E-010  0.24722667500000001     
 chl2c          33  0.60343137499999999        3.7458922634011876E-002  0.60343137499999999        0.0000000000000000        9.2987445154382766E-016
 chl          33   2.0240840296236906E-010   3.3542903360364560E-010  0.60343137499999999     
 chl2c          34  0.38241020000000003        2.5350269098008315E-002  0.38241020000000003        0.0000000000000000        5.3925588884064146E-016
 chl          34   1.2827148253553325E-010   3.3542903022862163E-010  0.38241020000000003     
 chl2c          35  0.49574644999999995        2.5740370148566064E-002  0.49574644999999995        0.0000000000000000        4.1662000189816001E-006
 chl          35   1.6628775096278184E-010   3.3542903022862163E-010  0.49574644999999995     
 chl2c          36  0.69587337500000002        3.7770393924465726E-002  0.69587337500000002        0.0000000000000000        6.4219338123807190E-006
 chl          36   2.3341613368802414E-010   3.3542903360546612E-010  0.69587337500000002     
 chl2c          37  0.33194060000000003        2.1353674699533250E-002  0.33194060000000003        0.0000000000000000        9.1431412106146162E-007
 chl          37   1.1134251355150681E-010   3.3542903022862163E-010  0.33194060000000003     
 chl2c          38  0.38455722500000000        2.1543295686358745E-002  0.38455722500000000        0.0000000000000000        3.7942080165397293E-006
 chl          38   1.2899165704915984E-010   3.3542903022862163E-010  0.38455722500000000     
 chl2c          39  0.47091117500000002        2.5670077108751441E-002  0.47091117500000002        0.0000000000000000        2.8085478892395895E-006
 chl          39   1.5795727875407073E-010   3.3542903022862163E-010  0.47091117500000002     
 chl2c          40  0.66875547499999999        3.7687445774703773E-002  0.66875547499999999        0.0000000000000000        4.6586158098905042E-006
 chl          40   2.2432000269761445E-010   3.3542903360546612E-010  0.66875547499999999     
 chl2c          41  0.44304987499999998        2.5582381488167241E-002  0.44304987499999998        0.0000000000000000        5.3742533759096887E-016
 chl          41   1.4861178991416202E-010   3.3542903022862163E-010  0.44304987499999998     
 chl2c          42  0.76234377499999995        3.7949995630725070E-002  0.76234377499999995        0.0000000000000000        3.7002532942760397E-006
 chl          42   2.5571223572200503E-010   3.3542903360364560E-010  0.76234377499999995     
 chl2c          43  0.29539925000000000        2.1185090152268007E-002  0.29539925000000000        0.0000000000000000        5.4365999776602849E-016
 chl          43   9.9085483957762162E-011   3.3542903022862163E-010  0.29539925000000000     
 chl2c          44  0.62417262500000004        3.7536352708156646E-002  0.62417262500000004        0.0000000000000000        7.5523695018340989E-006
 chl          44   2.0936562040560070E-010   3.3542903360364560E-010  0.62417262500000004     
 chl2c          45  0.37662252499999999        4.6544927192009838E-002  0.37662252499999999        0.0000000000000000        6.4131774655340545E-020
 chl          45   1.2633012832300479E-010   3.3542903022862163E-010  0.37662252499999999     
 chl2c          46  0.51876034999999998        3.7083195475449568E-002  0.51876034999999998        0.0000000000000000        9.3633168877408103E-016
 chl          46   1.7400728287238895E-010   3.3542903360364560E-010  0.51876034999999998     
 chl2c          47  0.61962282499999999        3.7519784612651236E-002  0.61962282499999999        0.0000000000000000        8.0414626507483644E-006
 chl          47   2.0783948538851082E-010   3.3542903360364560E-010  0.61962282499999999     
 chl2c          48  0.71424949999999998        3.7823212136301673E-002  0.71424949999999998        0.0000000000000000        5.6003222466918802E-006
 chl          48   2.3958001953688706E-010   3.3542903360364560E-010  0.71424949999999998     
 chl2c          49  0.53276120000000005        3.7152990741888416E-002  0.53276120000000005        0.0000000000000000        8.0118057896189759E-006
 chl          49   1.7870357445751858E-010   3.3542903360364560E-010  0.53276120000000005     
 chl2c          50  0.38132569999999999        2.1533072915600981E-002  0.38132569999999999        0.0000000000000000        5.4081525470377873E-016
 chl          50   1.2790770975225029E-010   3.3542903022862163E-010  0.38132569999999999     
 chl2c          51  0.22275920000000002        2.0700971146093840E-002  0.22275920000000002        0.0000000000000000        3.9520873647383164E-006
 chl          51   7.4719902430503574E-011   3.3542903022862163E-010  0.22275920000000002     
 chl2c          52  0.63698869999999996        3.7581825176985564E-002  0.63698869999999996        0.0000000000000000        6.0449891134867411E-006
 chl          52   2.1366450405860216E-010   3.3542903360546612E-010  0.63698869999999996     
 chl2c          53  0.75269794999999995        3.7925801262726190E-002  0.75269794999999995        0.0000000000000000        2.8829660678051811E-006
 chl          53   2.5247674596531545E-010   3.3542903360546612E-010  0.75269794999999995     
 chl2c          54  0.51861124999999997        3.7082433371327092E-002  0.51861124999999997        0.0000000000000000        7.9712455997271828E-006
 chl          54   1.7395727040347864E-010   3.3542903360364560E-010  0.51861124999999997     
 chl2c          55  0.57808280000000001        3.7357235588660491E-002  0.57808280000000001        0.0000000000000000        9.3785018555732965E-016
 chl          55   1.9390575494688954E-010   3.3542903360364560E-010  0.57808280000000001     
 chl2c          56  0.61626080000000005        3.7507394187257688E-002  0.61626080000000005        0.0000000000000000        5.7960071492729314E-006
 chl          56   2.0671176459293145E-010   3.3542903360546612E-010  0.61626080000000005     
 chl2c          57  0.68163462500000005        3.7727617852646313E-002  0.68163462500000005        0.0000000000000000        9.3832749463709348E-016
 chl          57   2.2864004353453340E-010   3.3542903360364560E-010  0.68163462500000005     
 chl2c          58  0.69416802499999997        3.7765358178394853E-002  0.69416802499999997        0.0000000000000000        9.3738648426307935E-016
 chl          58   2.3284410978556506E-010   3.3542903360546612E-010  0.69416802499999997     
 chl2c          59  0.53705127500000005        3.7173699120809672E-002  0.53705127500000005        0.0000000000000000        9.3909806730624804E-016
 chl          59   1.8014259016885573E-010   3.3542903360364560E-010  0.53705127500000005     
 chl2c          60  0.64452155000000000        3.7607757740906807E-002  0.64452155000000000        0.0000000000000000        9.2749755665644365E-016
 chl          60   2.1619124065322375E-010   3.3542903360364560E-010  0.64452155000000000     
 chl2c          61  0.70794139999999994        3.7805373434125003E-002  0.70794139999999994        0.0000000000000000        7.3485707267343345E-006
 chl          61   2.3746409965001191E-010   3.3542903360364560E-010  0.70794139999999994     
 chl2c          62  0.76481592499999995        3.7956103087269030E-002  0.76481592499999995        0.0000000000000000        5.3986083768937046E-006
 chl          62   2.5654146660742828E-010   3.3542903360364560E-010  0.76481592499999995     
 chl2c          63  0.72597904999999996        3.7855601011927406E-002  0.72597904999999996        0.0000000000000000        9.2795586743153175E-016
 chl          63   2.4351445115931435E-010   3.3542903360546612E-010  0.72597904999999996     
 chl2c          64  0.48435739999999999        2.5708982294816416E-002  0.48435739999999999        0.0000000000000000        4.3704503078820613E-006
 chl          64   1.6246753296605657E-010   3.3542903022862163E-010  0.48435739999999999     
 chl2c          65  0.76379975000000000        3.7953597170552002E-002  0.76379975000000000        0.0000000000000000        9.3121357501846619E-016
 chl          65   2.5620061201059662E-010   3.3542903360546612E-010  0.76379975000000000     
 chl2c          66  0.35213202499999996        3.1840477731474713E-002  0.35213202499999996        0.0000000000000000        4.0577870303614490E-010
 chl          66   1.1811530365819073E-010   3.3542903022862163E-010  0.35213202499999996     
 chl2c          67  0.75736760000000003        3.7937587124568600E-002  0.75736760000000003        0.0000000000000000        8.0101961606734196E-006
 chl          67   2.5404308215071245E-010   3.3542903360364560E-010  0.75736760000000003     
 chl2c          68  0.72590779999999999        3.7855407263856986E-002  0.72590779999999999        0.0000000000000000        9.3841762548638423E-016
 chl          68   2.4349055184066998E-010   3.3542903360546612E-010  0.72590779999999999     
 chl2c          69  0.45524217500000003        2.1732330561541505E-002  0.45524217500000003        0.0000000000000000        5.3964169852277386E-016
 chl          69   1.5270144127941846E-010   3.3542903022862163E-010  0.45524217500000003     
 chl2c          70  0.48694062500000002        3.2658010878182209E-002  0.48694062500000002        0.0000000000000000        5.1509502761945344E-009
 chl          70   1.6333402162266892E-010   3.3542903022862163E-010  0.48694062500000002     
 chl2c          71  0.23986107500000001        4.3481058864416305E-002  0.23986107500000001        0.0000000000000000        5.8977131742272805E-020
 chl          71   8.0456367776844684E-011   3.3542903022862163E-010  0.23986107500000001     
 chl2c          72  0.62790522500000001        3.7549776402781669E-002  0.62790522500000001        0.0000000000000000        6.7166810825171418E-006
 chl          72   2.1061764281757277E-010   3.3542903360546612E-010  0.62790522500000001     
 chl2c          73  0.35362212500000001        3.1852614277819484E-002  0.35362212500000001        0.0000000000000000        3.5508742434221467E-010
 chl          73   1.1861512645613442E-010   3.3542903022862163E-010  0.35362212500000001     
 chl2c          74  0.64719590000000005        3.7616827685877569E-002  0.64719590000000005        0.0000000000000000        9.3433105648362426E-016
 chl          74   2.1708829528924167E-010   3.3542903360364560E-010  0.64719590000000005     
 chl2c          75  0.71554212500000003        3.7826830779512356E-002  0.71554212500000003        0.0000000000000000        6.7164082707188518E-006
 chl          75   2.4001360349275167E-010   3.3542903360546612E-010  0.71554212500000003     
 chl2c          76  0.55513977500000000        3.7257729557919804E-002  0.55513977500000000        0.0000000000000000        9.3441787950811574E-016
 chl          76   1.8620999824420590E-010   3.3542903360546612E-010  0.55513977500000000     
 chl2c          77  0.52973029999999999        3.7138172437479272E-002  0.52973029999999999        0.0000000000000000        9.2657696803684086E-016
 chl          77   1.7768692259956926E-010   3.3542903360364560E-010  0.52973029999999999     
 chl2c          78  0.45117492500000000        4.7515248899399322E-002  0.45117492500000000        0.0000000000000000        6.2304519361723823E-019
 chl          78   1.5133716755622110E-010   3.3542903022862163E-010  0.45117492500000000     
 prod   2.3931830394401203E-010   0.0000000000000000        10.000000000000000     
 chl2c           1  0.60826437499999997        3.7477407714772232E-002  0.60826437499999997        0.0000000000000000        9.3244003039864555E-016
 chl           1   2.1479154385174995E-014   3.5312201845085860E-014  0.60826437499999997     
 chl2c           2  0.48302390000000001        3.2640259920490348E-002  0.48302390000000001        0.0000000000000000        1.1315940491797637E-020
 chl           2   1.0936840724230117E-016   2.2642442173627677E-016  0.48302390000000001     
 chl2c           3  0.75128689999999998        3.7922212503796585E-002  0.75128689999999998        0.0000000000000000        7.3792148327960297E-006
 chl           3   2.6529594656368834E-014   3.5312201845085860E-014  0.75128689999999998     
 chl2c           4  0.77318742499999993        3.7976509103863923E-002  0.77318742499999993        0.0000000000000000        9.3244003039864555E-016
 chl           4   2.7302950415682182E-014   3.5312201845085860E-014  0.77318742499999993     
 chl2c           5  0.48489679999999996        2.5710500362372445E-002  0.48489679999999996        0.0000000000000000        5.3956938729526360E-016
 chl           5   1.0979247754177104E-016   2.2642442173627677E-016  0.48489679999999996     
 chl2c           6  0.29222855000000003        3.1261039902252048E-002  0.29222855000000003        0.0000000000000000        1.4180168493711698E-019
 chl           6   6.6167680448580648E-017   2.2642442173627677E-016  0.29222855000000003     
 chl2c           7  0.22770740000000000        4.3064391842467263E-002  0.22770740000000000        0.0000000000000000        1.1041926929224269E-020
 chl           7   5.1558516370071072E-017   2.2642442173627677E-016  0.22770740000000000     
 chl2c           8  0.49578364999999996        4.7969800906495587E-002  0.49578364999999996        0.0000000000000000        1.1732819811036983E-020
 chl           8   1.1225752625755063E-016   2.2642442173627677E-016  0.49578364999999996     
 chl2c           9  0.28700202499999999        2.4803669054600401E-002  0.28700202499999999        0.0000000000000000        5.4184060496233035E-016
 chl           9   6.4984267547765448E-017   2.2642442173627677E-016  0.28700202499999999     
 chl2c          10  0.39094662499999999        2.5387016219684602E-002  0.39094662499999999        0.0000000000000000        5.4184846860571221E-016
 chl          10   8.8519863495374047E-017   2.2642442173627677E-016  0.39094662499999999     
 chl2c          11  0.49737575000000001        2.1820572217820047E-002  0.49737575000000001        0.0000000000000000        4.5421915357868341E-006
 chl          11   1.1261801657939696E-016   2.2642442173627677E-016  0.49737575000000001     
 chl2c          12  0.30768942500000002        4.5290941298723353E-002  0.30768942500000002        0.0000000000000000        3.2215068575851357E-011
 chl          12   6.9668400129992504E-017   2.2642442173627677E-016  0.30768942500000002     
 chl2c          13  0.75666275000000005        3.7935816987997487E-002  0.75666275000000005        0.0000000000000000        6.1927206604339790E-006
 chl          13   2.6719427756620887E-014   3.5312201845037152E-014  0.75666275000000005     
 chl2c          14  0.39804095000000000        4.6856526101924839E-002  0.39804095000000000        0.0000000000000000        3.7546005386194982E-010
 chl          14   9.0126191931108255E-017   2.2642442173627677E-016  0.39804095000000000     
 chl2c          15  0.25607262500000000        2.0954299823745293E-002  0.25607262500000000        0.0000000000000000        5.4323440924468437E-016
 chl          15   5.7981096038115444E-017   2.2642442173627677E-016  0.25607262500000000     
 chl2c          16  0.71433214999999994        3.7823443882273475E-002  0.71433214999999994        0.0000000000000000        3.9126582006986919E-006
 chl          16   2.5224641065234148E-014   3.5312201845085860E-014  0.71433214999999994     
 chl2c          17  0.62580860000000005        3.7542254757581245E-002  0.62580860000000005        0.0000000000000000        7.8712421955090278E-006
 chl          17   2.2098679599590600E-014   3.5312201845085860E-014  0.62580860000000005     
 chl2c          18  0.47925950000000000        2.5694475239060960E-002  0.47925950000000000        0.0000000000000000        2.4706918854611557E-006
 chl          18   1.0851605514911714E-016   2.2642442173627677E-016  0.47925950000000000     
 chl2c          19  0.63367130000000005        3.7570220750293731E-002  0.63367130000000005        0.0000000000000000        9.2840726311086917E-016
 chl          19   2.2376328849037957E-014   3.5312201845085860E-014  0.63367130000000005     
 chl2c          20  0.50678202500000002        3.7020645196759419E-002  0.50678202500000002        0.0000000000000000        7.0600276611876030E-006
 chl          20   1.7895589158236666E-014   3.5312201845037152E-014  0.50678202500000002     
 chl2c          21  0.71973185000000006        3.7838475073783531E-002  0.71973185000000006        0.0000000000000000        9.3329204705961431E-016
 chl          21   2.5415316361502005E-014   3.5312201845037152E-014  0.71973185000000006     
 chl2c          22  0.64616892500000001        3.7613353106285476E-002  0.64616892500000001        0.0000000000000000        9.3244003039864555E-016
 chl          22   2.2817647505622147E-014   3.5312201845085860E-014  0.64616892500000001     
 chl2c          23  0.41564179999999995        3.2286562315070731E-002  0.41564179999999995        0.0000000000000000        1.6153627543700469E-020
 chl          23   9.4111454214425193E-017   2.2642442173627677E-016  0.41564179999999995     
 chl2c          24  0.57597492500000003        3.7348402796863071E-002  0.57597492500000003        0.0000000000000000        6.5729428435701572E-006
 chl          24   2.0338942809280137E-014   3.5312201845037152E-014  0.57597492500000003     
 chl2c          25  0.31406487500000002        4.5426679235459781E-002  0.31406487500000002        0.0000000000000000        1.2303209651991634E-020
 chl          25   7.1111957709551054E-017   2.2642442173627677E-016  0.31406487500000002     
 chl2c          26  0.49427735000000000        4.7955660680174553E-002  0.49427735000000000        0.0000000000000000        9.4131106731672640E-011
 chl          26   1.1191646315108928E-016   2.2642442173627677E-016  0.49427735000000000     
 chl2c          27  0.30964730000000001        4.5333133499525620E-002  0.30964730000000001        0.0000000000000000        9.0379997775135617E-010
 chl          27   7.0111710844699421E-017   2.2642442173627677E-016  0.30964730000000001     
 chl2c          28  0.28776342500000002        3.1209236063453518E-002  0.28776342500000002        0.0000000000000000        8.8746482839429908E-010
 chl          28   6.5156667102475454E-017   2.2642442173627677E-016  0.28776342500000002     
 chl2c          29  0.68676297499999994        3.7743217595736761E-002  0.68676297499999994        0.0000000000000000        9.3416870077081097E-016
 chl          29   2.4251112792898203E-014   3.5312201845037152E-014  0.68676297499999994     
 chl2c          30  0.38930277499999999        2.5380056985171612E-002  0.38930277499999999        0.0000000000000000        4.5882845684336619E-006
 chl          30   8.8147655709702858E-017   2.2642442173627677E-016  0.38930277499999999     
 chl2c          31  0.63559385000000002        3.7576959810037038E-002  0.63559385000000002        0.0000000000000000        9.3635861170275720E-016
 chl          31   2.2444218322664268E-014   3.5312201845037152E-014  0.63559385000000002     
 chl2c          32  0.24722667500000001        2.0893126428578448E-002  0.24722667500000001        0.0000000000000000        5.4365791609547400E-016
 chl          32   5.5978156924657437E-017   2.2642442173627677E-016  0.24722667500000001     
 chl2c          33  0.60343137499999999        3.7458922634011876E-002  0.60343137499999999        0.0000000000000000        9.2987444941384109E-016
 chl          33   2.1308490513628304E-014   3.5312201845037152E-014  0.60343137499999999     
 chl2c          34  0.38241020000000003        2.5350269098008315E-002  0.38241020000000003        0.0000000000000000        5.3925588809845785E-016
 chl          34   8.6587008401053950E-017   2.2642442173627677E-016  0.38241020000000003     
 chl2c          35  0.49574644999999995        2.5740370148566064E-002  0.49574644999999995        0.0000000000000000        4.2585744186155612E-006
 chl          35   1.1224910326906204E-016   2.2642442173627677E-016  0.49574644999999995     
 chl2c          36  0.69587337500000002        3.7770393924465726E-002  0.69587337500000002        0.0000000000000000        6.6561146919245404E-006
 chl          36   2.4572821076621126E-014   3.5312201845085860E-014  0.69587337500000002     
 chl2c          37  0.33194060000000003        2.1353674699533250E-002  0.33194060000000003        0.0000000000000000        1.4073945485791776E-006
 chl          37   7.5159458405792755E-017   2.2642442173627677E-016  0.33194060000000003     
 chl2c          38  0.38455722500000000        2.1543295686358745E-002  0.38455722500000000        0.0000000000000000        3.9852063320626339E-006
 chl          38   8.7073147295132271E-017   2.2642442173627677E-016  0.38455722500000000     
 chl2c          39  0.47091117500000002        2.5670077108751441E-002  0.47091117500000002        0.0000000000000000        3.1703155699416741E-006
 chl          39   1.0662579048852563E-016   2.2642442173627677E-016  0.47091117500000002     
 chl2c          40  0.66875547499999999        3.7687445774703773E-002  0.66875547499999999        0.0000000000000000        3.9334891423578302E-006
 chl          40   2.3615228318206271E-014   3.5312201845085860E-014  0.66875547499999999     
 chl2c          41  0.44304987499999998        2.5582381488167241E-002  0.44304987499999998        0.0000000000000000        5.3742533673743280E-016
 chl          41   1.0031731174720471E-016   2.2642442173627677E-016  0.44304987499999998     
 chl2c          42  0.76234377499999995        3.7949995630725070E-002  0.76234377499999995        0.0000000000000000        2.9652319278076488E-006
 chl          42   2.6920037258107586E-014   3.5312201845037152E-014  0.76234377499999995     
 chl2c          43  0.29539925000000000        2.1185090152268007E-002  0.29539925000000000        0.0000000000000000        5.4365999729492510E-016
 chl          43   6.6885604362579857E-017   2.2642442173627677E-016  0.29539925000000000     
 chl2c          44  0.62417262500000004        3.7536352708156646E-002  0.62417262500000004        0.0000000000000000        7.2537112846786279E-006
 chl          44   2.2040909720146684E-014   3.5312201845037152E-014  0.62417262500000004     
 chl2c          45  0.37662252499999999        4.6544927192009838E-002  0.37662252499999999        0.0000000000000000        1.4872872040582093E-020
 chl          45   8.5276537435981432E-017   2.2642442173627677E-016  0.37662252499999999     
 chl2c          46  0.51876034999999998        3.7083195475449568E-002  0.51876034999999998        0.0000000000000000        9.3633168702920649E-016
 chl          46   1.8318570188402119E-014   3.5312201845037152E-014  0.51876034999999998     
 chl2c          47  0.61962282499999999        3.7519784612651236E-002  0.61962282499999999        0.0000000000000000        7.9082000892929647E-006
 chl          47   2.1880246264192133E-014   3.5312201845037152E-014  0.61962282499999999     
 chl2c          48  0.71424949999999998        3.7823212136301673E-002  0.71424949999999998        0.0000000000000000        4.9764680379144141E-006
 chl          48   2.5221722511716864E-014   3.5312201845037152E-014  0.71424949999999998     
 chl2c          49  0.53276120000000005        3.7152990741888416E-002  0.53276120000000005        0.0000000000000000        7.8790135675258517E-006
 chl          49   1.8812971029604210E-014   3.5312201845037152E-014  0.53276120000000005     
 chl2c          50  0.38132569999999999        2.1533072915600981E-002  0.38132569999999999        0.0000000000000000        5.4081525405706327E-016
 chl          50   8.6341451115680948E-017   2.2642442173627677E-016  0.38132569999999999     
 chl2c          51  0.22275920000000002        2.0700971146093840E-002  0.22275920000000002        0.0000000000000000        4.1079680311783158E-006
 chl          51   5.0438123046435628E-017   2.2642442173627677E-016  0.22275920000000002     
 chl2c          52  0.63698869999999996        3.7581825176985564E-002  0.63698869999999996        0.0000000000000000        5.4305381117535042E-006
 chl          52   2.2493473547438842E-014   3.5312201845085860E-014  0.63698869999999996     
 chl2c          53  0.75269794999999995        3.7925801262726190E-002  0.75269794999999995        0.0000000000000000        2.1323681515520477E-006
 chl          53   2.6579421938782341E-014   3.5312201845085860E-014  0.75269794999999995     
 chl2c          54  0.51861124999999997        3.7082433371327092E-002  0.51861124999999997        0.0000000000000000        7.8390781561262198E-006
 chl          54   1.8313305139107023E-014   3.5312201845037152E-014  0.51861124999999997     
 chl2c          55  0.57808280000000001        3.7357235588660491E-002  0.57808280000000001        0.0000000000000000        9.3785018390382000E-016
 chl          55   2.0413376516744244E-014   3.5312201845037152E-014  0.57808280000000001     
 chl2c          56  0.61626080000000005        3.7507394187257688E-002  0.61626080000000005        0.0000000000000000        6.0948001329628000E-006
 chl          56   2.1761525758814090E-014   3.5312201845085860E-014  0.61626080000000005     
 chl2c          57  0.68163462500000005        3.7727617852646313E-002  0.68163462500000005        0.0000000000000000        9.3832749301236542E-016
 chl          57   2.4070019462566210E-014   3.5312201845037152E-014  0.68163462500000005     
 chl2c          58  0.69416802499999997        3.7765358178394853E-002  0.69416802499999997        0.0000000000000000        9.3244003039864555E-016
 chl          58   2.4512601413204607E-014   3.5312201845085860E-014  0.69416802499999997     
 chl2c          59  0.53705127500000005        3.7173699120809672E-002  0.53705127500000005        0.0000000000000000        9.3909806572804916E-016
 chl          59   1.8964463023934557E-014   3.5312201845037152E-014  0.53705127500000005     
 chl2c          60  0.64452155000000000        3.7607757740906807E-002  0.64452155000000000        0.0000000000000000        9.2749755438608698E-016
 chl          60   2.2759475067076204E-014   3.5312201845037152E-014  0.64452155000000000     
 chl2c          61  0.70794139999999994        3.7805373434125003E-002  0.70794139999999994        0.0000000000000000        7.4132919951857176E-006
 chl          61   2.4998969611258181E-014   3.5312201845037152E-014  0.70794139999999994     
 chl2c          62  0.76481592499999995        3.7956103087269030E-002  0.76481592499999995        0.0000000000000000        4.7656085478766100E-006
 chl          62   2.7007334317898793E-014   3.5312201845037152E-014  0.76481592499999995     
 chl2c          63  0.72597904999999996        3.7855601011927406E-002  0.72597904999999996        0.0000000000000000        9.2795586518818272E-016
 chl          63   2.5635918748903679E-014   3.5312201845085860E-014  0.72597904999999996     
 chl2c          64  0.48435739999999999        2.5708982294816416E-002  0.48435739999999999        0.0000000000000000        4.3942794150413089E-006
 chl          64   1.0967034420868650E-016   2.2642442173627677E-016  0.48435739999999999     
 chl2c          65  0.76379975000000000        3.7953597170552002E-002  0.76379975000000000        0.0000000000000000        9.3121357296789209E-016
 chl          65   2.6971450941226119E-014   3.5312201845085860E-014  0.76379975000000000     
 chl2c          66  0.35213202499999996        3.1840477731474713E-002  0.35213202499999996        0.0000000000000000        9.6262286704615607E-011
 chl          66   7.9731290135449148E-017   2.2642442173627677E-016  0.35213202499999996     
 chl2c          67  0.75736760000000003        3.7937587124568600E-002  0.75736760000000003        0.0000000000000000        7.8774033802819723E-006
 chl          67   2.6744317562091362E-014   3.5312201845037152E-014  0.75736760000000003     
 chl2c          68  0.72590779999999999        3.7855407263856986E-002  0.72590779999999999        0.0000000000000000        9.3244003039864555E-016
 chl          68   2.5633402754522216E-014   3.5312201845085860E-014  0.72590779999999999     
 chl2c          69  0.45524217500000003        2.1732330561541505E-002  0.45524217500000003        0.0000000000000000        5.3964169780415816E-016
 chl          69   1.0307794622433992E-016   2.2642442173627677E-016  0.45524217500000003     
 chl2c          70  0.48694062500000002        3.2658010878182209E-002  0.48694062500000002        0.0000000000000000        1.0977921643972089E-009
 chl          70   1.1025524943552620E-016   2.2642442173627677E-016  0.48694062500000002     
 chl2c          71  0.23986107500000001        4.3481058864416305E-002  0.23986107500000001        0.0000000000000000        1.3677354736770358E-020
 chl          71   5.4310405203916713E-017   2.2642442173627677E-016  0.23986107500000001     
 chl2c          72  0.62790522500000001        3.7549776402781669E-002  0.62790522500000001        0.0000000000000000        6.1896771305632931E-006
 chl          72   2.2172716044784052E-014   3.5312201845085860E-014  0.62790522500000001     
 chl2c          73  0.35362212500000001        3.1852614277819484E-002  0.35362212500000001        0.0000000000000000        9.2228956520024934E-011
 chl          73   8.0068685166278384E-017   2.2642442173627677E-016  0.35362212500000001     
 chl2c          74  0.64719590000000005        3.7616827685877569E-002  0.64719590000000005        0.0000000000000000        9.3433105461884168E-016
 chl          74   2.2853912254080483E-014   3.5312201845037152E-014  0.64719590000000005     
 chl2c          75  0.71554212500000003        3.7826830779512356E-002  0.71554212500000003        0.0000000000000000        6.9012450734511522E-006
 chl          75   2.5267367946661659E-014   3.5312201845085860E-014  0.71554212500000003     
 chl2c          76  0.55513977500000000        3.7257729557919804E-002  0.55513977500000000        0.0000000000000000        9.3244003039864555E-016
 chl          76   1.9603207787035550E-014   3.5312201845085860E-014  0.55513977500000000     
 chl2c          77  0.52973029999999999        3.7138172437479272E-002  0.52973029999999999        0.0000000000000000        9.2657696571231844E-016
 chl          77   1.8705943277032083E-014   3.5312201845037152E-014  0.52973029999999999     
 chl2c          78  0.45117492500000000        4.7515248899399322E-002  0.45117492500000000        0.0000000000000000        1.3597287662555066E-019
 chl          78   1.0215702149503304E-016   2.2642442173627677E-016  0.45117492500000000     
 prod   5.5495616702682497E-011   0.0000000000000000        10.000000000000000     
 chl2c           1  0.60826437499999997        3.7477407714772232E-002  0.60826437499999997        0.0000000000000000        9.3488744221230909E-016
 chl           1   5.7864376126729864E-019   9.5130306006709446E-019  0.60826437499999997     
 chl2c           2  0.48302390000000001        3.2640259920490348E-002  0.48302390000000001        0.0000000000000000        4.1696239808367119E-021
 chl           2   4.8693895924767307E-021   1.0081053116578145E-020  0.48302390000000001     
 chl2c           3  0.75128689999999998        3.7922212503796585E-002  0.75128689999999998        0.0000000000000000        7.4226763968229683E-006
 chl           3   7.1470152695832118E-019   9.5130306006709446E-019  0.75128689999999998     
 chl2c           4  0.77318742499999993        3.7976509103863923E-002  0.77318742499999993        0.0000000000000000        9.3488744221230909E-016
 chl           4   7.3553556340789698E-019   9.5130306006709446E-019  0.77318742499999993     
 chl2c           5  0.48489679999999996        2.5710500362372445E-002  0.48489679999999996        0.0000000000000000        5.3956938715608201E-016
 chl           5   4.8882703968587691E-021   1.0081053116578145E-020  0.48489679999999996     
 chl2c           6  0.29222855000000003        3.1261039902252048E-002  0.29222855000000003        0.0000000000000000        5.5029947209587364E-020
 chl           6   2.9459715347306127E-021   1.0081053116578145E-020  0.29222855000000003     
 chl2c           7  0.22770740000000000        4.3064391842467263E-002  0.22770740000000000        0.0000000000000000        4.0686559721786332E-021
 chl           7   2.2955303944379062E-021   1.0081053116578145E-020  0.22770740000000000     
 chl2c           8  0.49578364999999996        4.7969800906495587E-002  0.49578364999999996        0.0000000000000000        4.3232350197999458E-021
 chl           8   4.9980213099809877E-021   1.0081053116578145E-020  0.49578364999999996     
 chl2c           9  0.28700202499999999        2.4803669054600401E-002  0.28700202499999999        0.0000000000000000        5.4184060484998295E-016
 chl           9   2.8932826585904888E-021   1.0081053116578145E-020  0.28700202499999999     
 chl2c          10  0.39094662499999999        2.5387016219684602E-002  0.39094662499999999        0.0000000000000000        5.4184846849345809E-016
 chl          10   3.9411536923719575E-021   1.0081053116578145E-020  0.39094662499999999     
 chl2c          11  0.49737575000000001        2.1820572217820047E-002  0.49737575000000001        0.0000000000000000        4.4806818844603710E-006
 chl          11   5.0140713546478923E-021   1.0081053116578145E-020  0.49737575000000001     
 chl2c          12  0.30768942500000002        4.5290941298723353E-002  0.30768942500000002        0.0000000000000000        6.9909517857155853E-012
 chl          12   3.1018334368343876E-021   1.0081053116578145E-020  0.30768942500000002     
 chl2c          13  0.75666275000000005        3.7935816987997487E-002  0.75666275000000005        0.0000000000000000        5.6025648791569159E-006
 chl          13   7.1981558951376644E-019   9.5130306006707270E-019  0.75666275000000005     
 chl2c          14  0.39804095000000000        4.6856526101924839E-002  0.39804095000000000        0.0000000000000000        1.8404412422853922E-010
 chl          14   4.0126719595232254E-021   1.0081053116578145E-020  0.39804095000000000     
 chl2c          15  0.25607262500000000        2.0954299823745293E-002  0.25607262500000000        0.0000000000000000        5.4323440914891833E-016
 chl          15   2.5814817343265969E-021   1.0081053116578145E-020  0.25607262500000000     
 chl2c          16  0.71433214999999994        3.7823443882273475E-002  0.71433214999999994        0.0000000000000000        3.1287633374021965E-006
 chl          16   6.7954636019930668E-019   9.5130306006709446E-019  0.71433214999999994     
 chl2c          17  0.62580860000000005        3.7542254757581245E-002  0.62580860000000005        0.0000000000000000        7.7471905001621136E-006
 chl          17   5.9533363619630435E-019   9.5130306006709446E-019  0.62580860000000005     
 chl2c          18  0.47925950000000000        2.5694475239060960E-002  0.47925950000000000        0.0000000000000000        2.9037294931907095E-006
 chl          18   4.8314404761246837E-021   1.0081053116578145E-020  0.47925950000000000     
 chl2c          19  0.63367130000000005        3.7570220750293731E-002  0.63367130000000005        0.0000000000000000        9.2840726268415872E-016
 chl          19   6.0281344676669385E-019   9.5130306006709446E-019  0.63367130000000005     
 chl2c          20  0.50678202500000002        3.7020645196759419E-002  0.50678202500000002        0.0000000000000000        6.6221300676866756E-006
 chl          20   4.8210329116948774E-019   9.5130306006707270E-019  0.50678202500000002     
 chl2c          21  0.71973185000000006        3.7838475073783531E-002  0.71973185000000006        0.0000000000000000        9.3329204668870355E-016
 chl          21   6.8468311133273537E-019   9.5130306006707270E-019  0.71973185000000006     
 chl2c          22  0.64616892500000001        3.7613353106285476E-002  0.64616892500000001        0.0000000000000000        9.3488744221230909E-016
 chl          22   6.1470247567276490E-019   9.5130306006709446E-019  0.64616892500000001     
 chl2c          23  0.41564179999999995        3.2286562315070731E-002  0.41564179999999995        0.0000000000000000        5.9522163627163569E-021
 chl          23   4.1901070632701499E-021   1.0081053116578145E-020  0.41564179999999995     
 chl2c          24  0.57597492500000003        3.7348402796863071E-002  0.57597492500000003        0.0000000000000000        6.7715577680191741E-006
 chl          24   5.4792670867440273E-019   9.5130306006707270E-019  0.57597492500000003     
 chl2c          25  0.31406487500000002        4.5426679235459781E-002  0.31406487500000002        0.0000000000000000        4.5334116132648495E-021
 chl          25   3.1661046869264758E-021   1.0081053116578145E-020  0.31406487500000002     
 chl2c          26  0.49427735000000000        4.7955660680174553E-002  0.49427735000000000        0.0000000000000000        3.3939113053190834E-011
 chl          26   4.9828362196714867E-021   1.0081053116578145E-020  0.49427735000000000     
 chl2c          27  0.30964730000000001        4.5333133499525620E-002  0.30964730000000001        0.0000000000000000        3.4426071561840590E-010
 chl          27   3.1215708787050080E-021   1.0081053116578145E-020  0.30964730000000001     
 chl2c          28  0.28776342500000002        3.1209236063453518E-002  0.28776342500000002        0.0000000000000000        3.3362780173760738E-010
 chl          28   2.9009583724334517E-021   1.0081053116578145E-020  0.28776342500000002     
 chl2c          29  0.68676297499999994        3.7743217595736761E-002  0.68676297499999994        0.0000000000000000        9.3416870040997850E-016
 chl          29   6.5331971965826652E-019   9.5130306006707270E-019  0.68676297499999994     
 chl2c          30  0.38930277499999999        2.5380056985171612E-002  0.38930277499999999        0.0000000000000000        4.5039819405323633E-006
 chl          30   3.9245819532062702E-021   1.0081053116578145E-020  0.38930277499999999     
 chl2c          31  0.63559385000000002        3.7576959810037038E-002  0.63559385000000002        0.0000000000000000        9.3635861136718701E-016
 chl          31   6.0464237446481205E-019   9.5130306006707270E-019  0.63559385000000002     
 chl2c          32  0.24722667500000001        2.0893126428578448E-002  0.24722667500000001        0.0000000000000000        5.4365791600476348E-016
 chl          32   2.4923052425100022E-021   1.0081053116578145E-020  0.24722667500000001     
 chl2c          33  0.60343137499999999        3.7458922634011876E-002  0.60343137499999999        0.0000000000000000        9.2987444900382669E-016
 chl          33   5.7404611357798127E-019   9.5130306006707270E-019  0.60343137499999999     
 chl2c          34  0.38241020000000003        2.5350269098008315E-002  0.38241020000000003        0.0000000000000000        5.3925588795559031E-016
 chl          34   3.8550975385212721E-021   1.0081053116578145E-020  0.38241020000000003     
 chl2c          35  0.49574644999999995        2.5740370148566064E-002  0.49574644999999995        0.0000000000000000        4.3044660201704383E-006
 chl          35   4.9976462948050512E-021   1.0081053116578145E-020  0.49574644999999995     
 chl2c          36  0.69587337500000002        3.7770393924465726E-002  0.69587337500000002        0.0000000000000000        6.8419563744119750E-006
 chl          36   6.6198647105671675E-019   9.5130306006709446E-019  0.69587337500000002     
 chl2c          37  0.33194060000000003        2.1353674699533250E-002  0.33194060000000003        0.0000000000000000        1.9317700491990798E-006
 chl          37   3.3463108201488199E-021   1.0081053116578145E-020  0.33194060000000003     
 chl2c          38  0.38455722500000000        2.1543295686358745E-002  0.38455722500000000        0.0000000000000000        4.1233761141093991E-006
 chl          38   3.8767418115888929E-021   1.0081053116578145E-020  0.38455722500000000     
 chl2c          39  0.47091117500000002        2.5670077108751441E-002  0.47091117500000002        0.0000000000000000        3.4904063931019682E-006
 chl          39   4.7472805683652263E-021   1.0081053116578145E-020  0.47091117500000002     
 chl2c          40  0.66875547499999999        3.7687445774703773E-002  0.66875547499999999        0.0000000000000000        3.1504357018258696E-006
 chl          40   6.3618912980412328E-019   9.5130306006709446E-019  0.66875547499999999     
 chl2c          41  0.44304987499999998        2.5582381488167241E-002  0.44304987499999998        0.0000000000000000        5.3742533657313014E-016
 chl          41   4.4664093231683075E-021   1.0081053116578145E-020  0.44304987499999998     
 chl2c          42  0.76234377499999995        3.7949995630725070E-002  0.76234377499999995        0.0000000000000000        2.1542162695913739E-006
 chl          42   7.2521996598058393E-019   9.5130306006707270E-019  0.76234377499999995     
 chl2c          43  0.29539925000000000        2.1185090152268007E-002  0.29539925000000000        0.0000000000000000        5.4365999720423952E-016
 chl          43   2.9779355298473466E-021   1.0081053116578145E-020  0.29539925000000000     
 chl2c          44  0.62417262500000004        3.7536352708156646E-002  0.62417262500000004        0.0000000000000000        6.8777284469814599E-006
 chl          44   5.9377732817259752E-019   9.5130306006707270E-019  0.62417262500000004     
 chl2c          45  0.37662252499999999        4.6544927192009838E-002  0.37662252499999999        0.0000000000000000        5.4802812656984863E-021
 chl          45   3.7967516794247802E-021   1.0081053116578145E-020  0.37662252499999999     
 chl2c          46  0.51876034999999998        3.7083195475449568E-002  0.51876034999999998        0.0000000000000000        9.3633168669332471E-016
 chl          46   4.9349830839646562E-019   9.5130306006707270E-019  0.51876034999999998     
 chl2c          47  0.61962282499999999        3.7519784612651236E-002  0.61962282499999999        0.0000000000000000        7.7626491398775656E-006
 chl          47   5.8944908950990430E-019   9.5130306006707270E-019  0.61962282499999999     
 chl2c          48  0.71424949999999998        3.7823212136301673E-002  0.71424949999999998        0.0000000000000000        4.2438349590830586E-006
 chl          48   6.7946773500137661E-019   9.5130306006707270E-019  0.71424949999999998     
 chl2c          49  0.53276120000000005        3.7152990741888416E-002  0.53276120000000005        0.0000000000000000        7.7337142348539303E-006
 chl          49   5.0681735984500582E-019   9.5130306006707270E-019  0.53276120000000005     
 chl2c          50  0.38132569999999999        2.1533072915600981E-002  0.38132569999999999        0.0000000000000000        5.4081525393257283E-016
 chl          50   3.8441646364163427E-021   1.0081053116578145E-020  0.38132569999999999     
 chl2c          51  0.22275920000000002        2.0700971146093840E-002  0.22275920000000002        0.0000000000000000        4.2122288709039358E-006
 chl          51   2.2456473274064547E-021   1.0081053116578145E-020  0.22275920000000002     
 chl2c          52  0.63698869999999996        3.7581825176985564E-002  0.63698869999999996        0.0000000000000000        4.7566882367205402E-006
 chl          52   6.0596929953816036E-019   9.5130306006709446E-019  0.63698869999999996     
 chl2c          53  0.75269794999999995        3.7925801262726190E-002  0.75269794999999995        0.0000000000000000        1.3397582125833667E-006
 chl          53   7.1604386314122883E-019   9.5130306006709446E-019  0.75269794999999995     
 chl2c          54  0.51861124999999997        3.7082433371327092E-002  0.51861124999999997        0.0000000000000000        7.6941315064797234E-006
 chl          54   4.9335646911020959E-019   9.5130306006707270E-019  0.51861124999999997     
 chl2c          55  0.57808280000000001        3.7357235588660491E-002  0.57808280000000001        0.0000000000000000        9.3785018358552567E-016
 chl          55   5.4993193661214154E-019   9.5130306006707270E-019  0.57808280000000001     
 chl2c          56  0.61626080000000005        3.7507394187257688E-002  0.61626080000000005        0.0000000000000000        6.4037978799309240E-006
 chl          56   5.8625078483939571E-019   9.5130306006709446E-019  0.61626080000000005     
 chl2c          57  0.68163462500000005        3.7727617852646313E-002  0.68163462500000005        0.0000000000000000        9.3832749269961145E-016
 chl          57   6.4844110461017159E-019   9.5130306006707270E-019  0.68163462500000005     
 chl2c          58  0.69416802499999997        3.7765358178394853E-002  0.69416802499999997        0.0000000000000000        9.3488744221230909E-016
 chl          58   6.6036416638323128E-019   9.5130306006709446E-019  0.69416802499999997     
 chl2c          59  0.53705127500000005        3.7173699120809672E-002  0.53705127500000005        0.0000000000000000        9.3909806542425173E-016
 chl          59   5.1089852132042300E-019   9.5130306006707270E-019  0.53705127500000005     
 chl2c          60  0.64452155000000000        3.7607757740906807E-002  0.64452155000000000        0.0000000000000000        9.2749755394905192E-016
 chl          60   6.1313532279417282E-019   9.5130306006707270E-019  0.64452155000000000     
 chl2c          61  0.70794139999999994        3.7805373434125003E-002  0.70794139999999994        0.0000000000000000        7.4329366944843444E-006
 chl          61   6.7346682016816744E-019   9.5130306006707270E-019  0.70794139999999994     
 chl2c          62  0.76481592499999995        3.7956103087269030E-002  0.76481592499999995        0.0000000000000000        4.0260972794226138E-006
 chl          62   7.2757172984052871E-019   9.5130306006707270E-019  0.76481592499999995     
 chl2c          63  0.72597904999999996        3.7855601011927406E-002  0.72597904999999996        0.0000000000000000        9.2795586475634665E-016
 chl          63   6.9062609180960211E-019   9.5130306006709446E-019  0.72597904999999996     
 chl2c          64  0.48435739999999999        2.5708982294816416E-002  0.48435739999999999        0.0000000000000000        4.3810867842729816E-006
 chl          64   4.8828326768076873E-021   1.0081053116578145E-020  0.48435739999999999     
 chl2c          65  0.76379975000000000        3.7953597170552002E-002  0.76379975000000000        0.0000000000000000        9.3121357257316423E-016
 chl          65   7.2660503945348170E-019   9.5130306006709446E-019  0.76379975000000000     
 chl2c          66  0.35213202499999996        3.1840477731474713E-002  0.35213202499999996        0.0000000000000000        3.5875351508524935E-011
 chl          66   3.5498616480732233E-021   1.0081053116578145E-020  0.35213202499999996     
 chl2c          67  0.75736760000000003        3.7937587124568600E-002  0.75736760000000003        0.0000000000000000        7.7318859856406702E-006
 chl          67   7.2048611547565471E-019   9.5130306006707270E-019  0.75736760000000003     
 chl2c          68  0.72590779999999999        3.7855407263856986E-002  0.72590779999999999        0.0000000000000000        9.3488744221230909E-016
 chl          68   6.9055831146657242E-019   9.5130306006709446E-019  0.72590779999999999     
 chl2c          69  0.45524217500000003        2.1732330561541505E-002  0.45524217500000003        0.0000000000000000        5.3964169766582716E-016
 chl          69   4.5893205470815640E-021   1.0081053116578145E-020  0.45524217500000003     
 chl2c          70  0.48694062500000002        3.2658010878182209E-002  0.48694062500000002        0.0000000000000000        4.1248962647975149E-010
 chl          70   4.9088743052447602E-021   1.0081053116578145E-020  0.48694062500000002     
 chl2c          71  0.23986107500000001        4.3481058864416305E-002  0.23986107500000001        0.0000000000000000        5.0397561440332984E-021
 chl          71   2.4180522376745345E-021   1.0081053116578145E-020  0.23986107500000001     
 chl2c          72  0.62790522500000001        3.7549776402781669E-002  0.62790522500000001        0.0000000000000000        5.6134297635252028E-006
 chl          72   5.9732816197461748E-019   9.5130306006709446E-019  0.62790522500000001     
 chl2c          73  0.35362212500000001        3.1852614277819484E-002  0.35362212500000001        0.0000000000000000        3.7166416732351391E-011
 chl          73   3.5648834253222363E-021   1.0081053116578145E-020  0.35362212500000001     
 chl2c          74  0.64719590000000005        3.7616827685877569E-002  0.64719590000000005        0.0000000000000000        9.3433105425987802E-016
 chl          74   6.1567944013286319E-019   9.5130306006707270E-019  0.64719590000000005     
 chl2c          75  0.71554212500000003        3.7826830779512356E-002  0.71554212500000003        0.0000000000000000        7.0372351149591380E-006
 chl          75   6.8069741311941148E-019   9.5130306006709446E-019  0.71554212500000003     
 chl2c          76  0.55513977500000000        3.7257729557919804E-002  0.55513977500000000        0.0000000000000000        9.3441787729056186E-016
 chl          76   5.2810616672245827E-019   9.5130306006709446E-019  0.55513977500000000     
 chl2c          77  0.52973029999999999        3.7138172437479272E-002  0.52973029999999999        0.0000000000000000        9.2657696526485661E-016
 chl          77   5.0393405540024839E-019   9.5130306006707270E-019  0.52973029999999999     
 chl2c          78  0.45117492500000000        4.7515248899399322E-002  0.45117492500000000        0.0000000000000000        5.2767650199787778E-020
 chl          78   4.5483183837931609E-021   1.0081053116578145E-020  0.45117492500000000     
 prod   2.0448397907110384E-011   0.0000000000000000        10.000000000000000     
 chl2c           1  0.60826437499999997        3.7477407714772232E-002  0.60826437499999997        0.0000000000000000        9.3573064635288344E-016
 chl           1   6.0702666091164837E-021   9.9796517083817114E-021  0.60826437499999997     
 chl2c           2  0.48302390000000001        3.2640259920490348E-002  0.48302390000000001        0.0000000000000000        1.7858055489457084E-021
 chl           2   4.8201760152069543E-021   9.9791666938363796E-021  0.48302390000000001     
 chl2c           3  0.75128689999999998        3.7922212503796585E-002  0.75128689999999998        0.0000000000000000        7.4349785693027910E-006
 chl           3   7.4975815950697993E-021   9.9796517083817114E-021  0.75128689999999998     
 chl2c           4  0.77318742499999993        3.7976509103863923E-002  0.77318742499999993        0.0000000000000000        9.3870557773967353E-016
 chl           4   7.7161412068005055E-021   9.9796517083817114E-021  0.77318742499999993     
 chl2c           5  0.48489679999999996        2.5710500362372445E-002  0.48489679999999996        0.0000000000000000        5.3956938710959296E-016
 chl           5   4.8388659965078401E-021   9.9791666938363796E-021  0.48489679999999996     
 chl2c           6  0.29222855000000003        3.1261039902252048E-002  0.29222855000000003        0.0000000000000000        2.6159333513231475E-020
 chl           6   2.9161974131480994E-021   9.9791666938363796E-021  0.29222855000000003     
 chl2c           7  0.22770740000000000        4.3064391842467263E-002  0.22770740000000000        0.0000000000000000        1.7425618435298886E-021
 chl           7   2.2723301020200782E-021   9.9791666938363796E-021  0.22770740000000000     
 chl2c           8  0.49578364999999996        4.7969800906495587E-002  0.49578364999999996        0.0000000000000000        1.8515958161802096E-021
 chl           8   4.9475076874286324E-021   9.9791666938363796E-021  0.49578364999999996     
 chl2c           9  0.28700202499999999        2.4803669054600401E-002  0.28700202499999999        0.0000000000000000        5.4184060481245693E-016
 chl           9   2.8640410489435958E-021   9.9791666938363796E-021  0.28700202499999999     
 chl2c          10  0.39094662499999999        2.5387016219684602E-002  0.39094662499999999        0.0000000000000000        5.4184846845596334E-016
 chl          10   3.9013215392677407E-021   9.9791666938363796E-021  0.39094662499999999     
 chl2c          11  0.49737575000000001        2.1820572217820047E-002  0.49737575000000001        0.0000000000000000        4.4271455259555423E-006
 chl          11   4.9633955187218894E-021   9.9791666938363796E-021  0.49737575000000001     
 chl2c          12  0.30768942500000002        4.5290941298723353E-002  0.30768942500000002        0.0000000000000000        1.5264395189482215E-012
 chl          12   3.0704840620056669E-021   9.9791666938363796E-021  0.30768942500000002     
 chl2c          13  0.75666275000000005        3.7935816987997487E-002  0.75666275000000005        0.0000000000000000        5.1320907952866598E-006
 chl          13   7.5512307057063037E-021   9.9796517083817114E-021  0.75666275000000005     
 chl2c          14  0.39804095000000000        4.6856526101924839E-002  0.39804095000000000        0.0000000000000000        9.9425942054757543E-011
 chl          14   3.9721169910229918E-021   9.9791666938363796E-021  0.39804095000000000     
 chl2c          15  0.25607262500000000        2.0954299823745293E-002  0.25607262500000000        0.0000000000000000        5.4323440911693101E-016
 chl          15   2.5553914106032530E-021   9.9791666938363796E-021  0.25607262500000000     
 chl2c          16  0.71433214999999994        3.7823443882273475E-002  0.71433214999999994        0.0000000000000000        2.5490206520185242E-006
 chl          16   7.1287860610994810E-021   9.9796517083817114E-021  0.71433214999999994     
 chl2c          17  0.62580860000000005        3.7542254757581245E-002  0.62580860000000005        0.0000000000000000        7.6726696561121602E-006
 chl          17   6.2453518641099672E-021   9.9796517083817114E-021  0.62580860000000005     
 chl2c          18  0.47925950000000000        2.5694475239060960E-002  0.47925950000000000        0.0000000000000000        3.1724816568812680E-006
 chl          18   4.7826104401046761E-021   9.9791666938363796E-021  0.47925950000000000     
 chl2c          19  0.63367130000000005        3.7570220750293731E-002  0.63367130000000005        0.0000000000000000        9.2840726254163029E-016
 chl          19   6.3238188715974607E-021   9.9796517083817114E-021  0.63367130000000005     
 chl2c          20  0.50678202500000002        3.7020645196759419E-002  0.50678202500000002        0.0000000000000000        6.2630407640147927E-006
 chl          20   5.0575081015683932E-021   9.9796517083817114E-021  0.50678202500000002     
 chl2c          21  0.71973185000000006        3.7838475073783531E-002  0.71973185000000006        0.0000000000000000        9.3329204656481314E-016
 chl          21   7.1826731864292309E-021   9.9796517083817114E-021  0.71973185000000006     
 chl2c          22  0.64616892500000001        3.7613353106285476E-002  0.64616892500000001        0.0000000000000000        9.3808823864651500E-016
 chl          22   6.4485408162794239E-021   9.9796517083817114E-021  0.64616892500000001     
 chl2c          23  0.41564179999999995        3.2286562315070731E-002  0.41564179999999995        0.0000000000000000        2.5492755973094729E-021
 chl          23   4.1477588071262013E-021   9.9791666938363796E-021  0.41564179999999995     
 chl2c          24  0.57597492500000003        3.7348402796863071E-002  0.57597492500000003        0.0000000000000000        6.8725328878699378E-006
 chl          24   5.7480291442612783E-021   9.9796517083817114E-021  0.57597492500000003     
 chl2c          25  0.31406487500000002        4.5426679235459781E-002  0.31406487500000002        0.0000000000000000        1.9416126506593652E-021
 chl          25   3.1341057403038861E-021   9.9791666938363796E-021  0.31406487500000002     
 chl2c          26  0.49427735000000000        4.7955660680174553E-002  0.49427735000000000        0.0000000000000000        1.4271428742783900E-011
 chl          26   4.9324760686377074E-021   9.9791666938363796E-021  0.49427735000000000     
 chl2c          27  0.30964730000000001        4.5333133499525620E-002  0.30964730000000001        0.0000000000000000        1.6136405638793981E-010
 chl          27   3.0900220229963616E-021   9.9791666938363796E-021  0.30964730000000001     
 chl2c          28  0.28776342500000002        3.1209236063453518E-002  0.28776342500000002        0.0000000000000000        1.5406405937147640E-010
 chl          28   2.8716391864642832E-021   9.9791666938363796E-021  0.28776342500000002     
 chl2c          29  0.68676297499999994        3.7743217595736761E-002  0.68676297499999994        0.0000000000000000        9.3416870028945455E-016
 chl          29   6.8536552967120567E-021   9.9796517083817114E-021  0.68676297499999994     
 chl2c          30  0.38930277499999999        2.5380056985171612E-002  0.38930277499999999        0.0000000000000000        4.4424732985674296E-006
 chl          30   3.8849172860980781E-021   9.9791666938363796E-021  0.38930277499999999     
 chl2c          31  0.63559385000000002        3.7576959810037038E-002  0.63559385000000002        0.0000000000000000        9.3635861125510072E-016
 chl          31   6.3430052509894095E-021   9.9796517083817114E-021  0.63559385000000002     
 chl2c          32  0.24722667500000001        2.0893126428578448E-002  0.24722667500000001        0.0000000000000000        5.4365791597446471E-016
 chl          32   2.4671162009879113E-021   9.9791666938363796E-021  0.24722667500000001     
 chl2c          33  0.60343137499999999        3.7458922634011876E-002  0.60343137499999999        0.0000000000000000        9.2987444886687492E-016
 chl          33   6.0220349524098747E-021   9.9796517083817114E-021  0.60343137499999999     
 chl2c          34  0.38241020000000003        2.5350269098008315E-002  0.38241020000000003        0.0000000000000000        5.3925588790787014E-016
 chl          34   3.8161351312233090E-021   9.9791666938363796E-021  0.38241020000000003     
 chl2c          35  0.49574644999999995        2.5740370148566064E-002  0.49574644999999995        0.0000000000000000        4.3081142639160696E-006
 chl          35   4.9471364624276214E-021   9.9791666938363796E-021  0.49574644999999995     
 chl2c          36  0.69587337500000002        3.7770393924465726E-002  0.69587337500000002        0.0000000000000000        6.9342976610923161E-006
 chl          36   6.9445739156360980E-021   9.9796517083817114E-021  0.69587337500000002     
 chl2c          37  0.33194060000000003        2.1353674699533250E-002  0.33194060000000003        0.0000000000000000        2.2891428784440580E-006
 chl          37   3.3124905798520645E-021   9.9791666938363796E-021  0.33194060000000003     
 chl2c          38  0.38455722500000000        2.1543295686358745E-002  0.38455722500000000        0.0000000000000000        4.1827547135026627E-006
 chl          38   3.8375606515941426E-021   9.9791666938363796E-021  0.38455722500000000     
 chl2c          39  0.47091117500000002        2.5670077108751441E-002  0.47091117500000002        0.0000000000000000        3.6724755547195931E-006
 chl          39   4.6993011133153549E-021   9.9791666938363796E-021  0.47091117500000002     
 chl2c          40  0.66875547499999999        3.7687445774703773E-002  0.66875547499999999        0.0000000000000000        2.5709947696945200E-006
 chl          40   6.6739467185733726E-021   9.9796517083817114E-021  0.66875547499999999     
 chl2c          41  0.44304987499999998        2.5582381488167241E-002  0.44304987499999998        0.0000000000000000        5.3742533651825046E-016
 chl          41   4.4212685563083714E-021   9.9791666938363796E-021  0.44304987499999998     
 chl2c          42  0.76234377499999995        3.7949995630725070E-002  0.76234377499999995        0.0000000000000000        1.5690209950074134E-006
 chl          42   7.6079253565529130E-021   9.9796517083817114E-021  0.76234377499999995     
 chl2c          43  0.29539925000000000        2.1185090152268007E-002  0.29539925000000000        0.0000000000000000        5.4365999717394904E-016
 chl          43   2.9478383569842462E-021   9.9791666938363796E-021  0.29539925000000000     
 chl2c          44  0.62417262500000004        3.7536352708156646E-002  0.62417262500000004        0.0000000000000000        6.5670396096662752E-006
 chl          44   6.2290254034063480E-021   9.9796517083817114E-021  0.62417262500000004     
 chl2c          45  0.37662252499999999        4.6544927192009838E-002  0.37662252499999999        0.0000000000000000        2.3471492980653900E-021
 chl          45   3.7583789576285592E-021   9.9791666938363796E-021  0.37662252499999999     
 chl2c          46  0.51876034999999998        3.7083195475449568E-002  0.51876034999999998        0.0000000000000000        9.3633168658113449E-016
 chl          46   5.1770476131181943E-021   9.9796517083817114E-021  0.51876034999999998     
 chl2c          47  0.61962282499999999        3.7519784612651236E-002  0.61962282499999999        0.0000000000000000        7.6560736819912615E-006
 chl          47   6.1836199840635523E-021   9.9796517083817114E-021  0.61962282499999999     
 chl2c          48  0.71424949999999998        3.7823212136301673E-002  0.71424949999999998        0.0000000000000000        3.6819413281238026E-006
 chl          48   7.1279612428857835E-021   9.9796517083817114E-021  0.71424949999999998     
 chl2c          49  0.53276120000000005        3.7152990741888416E-002  0.53276120000000005        0.0000000000000000        7.6268600867480817E-006
 chl          49   5.3167712197394909E-021   9.9796517083817114E-021  0.53276120000000005     
 chl2c          50  0.38132569999999999        2.1533072915600981E-002  0.38132569999999999        0.0000000000000000        5.4081525389099099E-016
 chl          50   3.8053127249438428E-021   9.9791666938363796E-021  0.38132569999999999     
 chl2c          51  0.22275920000000002        2.0700971146093840E-002  0.22275920000000002        0.0000000000000000        4.2505374950987263E-006
 chl          51   2.2229511893856372E-021   9.9791666938363796E-021  0.22275920000000002     
 chl2c          52  0.63698869999999996        3.7581825176985564E-002  0.63698869999999996        0.0000000000000000        4.2378244579695508E-006
 chl          52   6.3569253681748453E-021   9.9796517083817114E-021  0.63698869999999996     
 chl2c          53  0.75269794999999995        3.7925801262726190E-002  0.75269794999999995        0.0000000000000000        7.7947172356654035E-007
 chl          53   7.5116633826129115E-021   9.9796517083817114E-021  0.75269794999999995     
 chl2c          54  0.51861124999999997        3.7082433371327092E-002  0.51861124999999997        0.0000000000000000        7.5871128280700650E-006
 chl          54   5.1755596470484742E-021   9.9796517083817114E-021  0.51861124999999997     
 chl2c          55  0.57808280000000001        3.7357235588660491E-002  0.57808280000000001        0.0000000000000000        9.3785018347921009E-016
 chl          55   5.7690650026060836E-021   9.9796517083817114E-021  0.57808280000000001     
 chl2c          56  0.61626080000000005        3.7507394187257688E-002  0.61626080000000005        0.0000000000000000        6.5954239435682292E-006
 chl          56   6.1500681455286810E-021   9.9796517083817114E-021  0.61626080000000005     
 chl2c          57  0.68163462500000005        3.7727617852646313E-002  0.68163462500000005        0.0000000000000000        9.3832749259514635E-016
 chl          57   6.8024761498733771E-021   9.9796517083817114E-021  0.68163462500000005     
 chl2c          58  0.69416802499999997        3.7765358178394853E-002  0.69416802499999997        0.0000000000000000        9.3738648214985450E-016
 chl          58   6.9275551165952084E-021   9.9796517083817114E-021  0.69416802499999997     
 chl2c          59  0.53705127500000005        3.7173699120809672E-002  0.53705127500000005        0.0000000000000000        9.3909806532277838E-016
 chl          59   5.3595846740423270E-021   9.9796517083817114E-021  0.53705127500000005     
 chl2c          60  0.64452155000000000        3.7607757740906807E-002  0.64452155000000000        0.0000000000000000        9.2749755380307499E-016
 chl          60   6.4321005875463285E-021   9.9796517083817114E-021  0.64452155000000000     
 chl2c          61  0.70794139999999994        3.7805373434125003E-002  0.70794139999999994        0.0000000000000000        7.4181911042262852E-006
 chl          61   7.0650086019441402E-021   9.9796517083817114E-021  0.70794139999999994     
 chl2c          62  0.76481592499999995        3.7956103087269030E-002  0.76481592499999995        0.0000000000000000        3.4618315964505071E-006
 chl          62   7.6325965525237887E-021   9.9796517083817114E-021  0.76481592499999995     
 chl2c          63  0.72597904999999996        3.7855601011927406E-002  0.72597904999999996        0.0000000000000000        9.2795586461210600E-016
 chl          63   7.2450180665818314E-021   9.9796517083817114E-021  0.72597904999999996     
 chl2c          64  0.48435739999999999        2.5708982294816416E-002  0.48435739999999999        0.0000000000000000        4.3518190639544712E-006
 chl          64   4.8334832339931851E-021   9.9791666938363796E-021  0.48435739999999999     
 chl2c          65  0.76379975000000000        3.7953597170552002E-002  0.76379975000000000        0.0000000000000000        9.3121357244131856E-016
 chl          65   7.6224554799490239E-021   9.9796517083817114E-021  0.76379975000000000     
 chl2c          66  0.35213202499999996        3.1840477731474713E-002  0.35213202499999996        0.0000000000000000        1.5383619093628381E-011
 chl          66   3.5139841757131590E-021   9.9791666938363796E-021  0.35213202499999996     
 chl2c          67  0.75736760000000003        3.7937587124568600E-002  0.75736760000000003        0.0000000000000000        7.6245848382770806E-006
 chl          67   7.5582648632129569E-021   9.9796517083817114E-021  0.75736760000000003     
 chl2c          68  0.72590779999999999        3.7855407263856986E-002  0.72590779999999999        0.0000000000000000        9.3869611780235831E-016
 chl          68   7.2443070163976094E-021   9.9796517083817114E-021  0.72590779999999999     
 chl2c          69  0.45524217500000003        2.1732330561541505E-002  0.45524217500000003        0.0000000000000000        5.3964169761962239E-016
 chl          69   4.5429375503896329E-021   9.9791666938363796E-021  0.45524217500000003     
 chl2c          70  0.48694062500000002        3.2658010878182209E-002  0.48694062500000002        0.0000000000000000        1.9038239976257361E-010
 chl          70   4.8592616668758706E-021   9.9791666938363796E-021  0.48694062500000002     
 chl2c          71  0.23986107500000001        4.3481058864416305E-002  0.23986107500000001        0.0000000000000000        2.1584758367151408E-021
 chl          71   2.3936136507877899E-021   9.9791666938363796E-021  0.23986107500000001     
 chl2c          72  0.62790522500000001        3.7549776402781669E-002  0.62790522500000001        0.0000000000000000        5.1621568386361749E-006
 chl          72   6.2662754513730528E-021   9.9796517083817114E-021  0.62790522500000001     
 chl2c          73  0.35362212500000001        3.1852614277819484E-002  0.35362212500000001        0.0000000000000000        1.6682807508486356E-011
 chl          73   3.5288541320036450E-021   9.9791666938363796E-021  0.35362212500000001     
 chl2c          74  0.64719590000000005        3.7616827685877569E-002  0.64719590000000005        0.0000000000000000        9.3433105413997807E-016
 chl          74   6.4587896690926401E-021   9.9796517083817114E-021  0.64719590000000005     
 chl2c          75  0.71554212500000003        3.7826830779512356E-002  0.71554212500000003        0.0000000000000000        7.0966066169786130E-006
 chl          75   7.1408611901753308E-021   9.9796517083817114E-021  0.71554212500000003     
 chl2c          76  0.55513977500000000        3.7257729557919804E-002  0.55513977500000000        0.0000000000000000        9.3441787717099579E-016
 chl          76   5.5401016039693892E-021   9.9796517083817114E-021  0.55513977500000000     
 chl2c          77  0.52973029999999999        3.7138172437479272E-002  0.52973029999999999        0.0000000000000000        9.2657696511539686E-016
 chl          77   5.2865238933765561E-021   9.9796517083817114E-021  0.52973029999999999     
 chl2c          78  0.45117492500000000        4.7515248899399322E-002  0.45117492500000000        0.0000000000000000        2.5083872848304025E-020
 chl          78   4.5023497846541264E-021   9.9791666938363796E-021  0.45117492500000000     
 prod   8.7577931904997852E-012   0.0000000000000000        10.000000000000000     
 chl2c           1  0.60826437499999997        3.7477407714772232E-002  0.60826437499999997        0.0000000000000000        9.3573064630979980E-016
 chl           1   6.0700982973406105E-021   9.9793750001232784E-021  0.60826437499999997     
 chl2c           2  0.48302390000000001        3.2640259920490348E-002  0.48302390000000001        0.0000000000000000        8.8573041760469910E-022
 chl           2   4.8201760020833366E-021   9.9791666666666735E-021  0.48302390000000001     
 chl2c           3  0.75128689999999998        3.7922212503796585E-002  0.75128689999999998        0.0000000000000000        7.4172128266439657E-006
 chl           3   7.4973737077801167E-021   9.9793750001232784E-021  0.75128689999999998     
 chl2c           4  0.77318742499999993        3.7976509103863923E-002  0.77318742499999993        0.0000000000000000        9.3912050329514208E-016
 chl           4   7.7159272594546914E-021   9.9793750001232784E-021  0.77318742499999993     
 chl2c           5  0.48489679999999996        2.5710500362372445E-002  0.48489679999999996        0.0000000000000000        5.3956938709210174E-016
 chl           5   4.8388659833333365E-021   9.9791666666666735E-021  0.48489679999999996     
 chl2c           6  0.29222855000000003        3.1261039902252048E-002  0.29222855000000003        0.0000000000000000        1.4114095945215266E-020
 chl           6   2.9161974052083355E-021   9.9791666666666735E-021  0.29222855000000003     
 chl2c           7  0.22770740000000000        4.3064391842467263E-002  0.22770740000000000        0.0000000000000000        8.6428221104260667E-022
 chl           7   2.2723300958333349E-021   9.9791666666666735E-021  0.22770740000000000     
 chl2c           8  0.49578364999999996        4.7969800906495587E-002  0.49578364999999996        0.0000000000000000        9.1836137206505463E-022
 chl           8   4.9475076739583360E-021   9.9791666666666735E-021  0.49578364999999996     
 chl2c           9  0.28700202499999999        2.4803669054600401E-002  0.28700202499999999        0.0000000000000000        5.4184060479833810E-016
 chl           9   2.8640410411458354E-021   9.9791666666666735E-021  0.28700202499999999     
 chl2c          10  0.39094662499999999        2.5387016219684602E-002  0.39094662499999999        0.0000000000000000        5.4184846844185614E-016
 chl          10   3.9013215286458361E-021   9.9791666666666735E-021  0.39094662499999999     
 chl2c          11  0.49737575000000001        2.1820572217820047E-002  0.49737575000000001        0.0000000000000000        4.3926805515204549E-006
 chl          11   4.9633955052083364E-021   9.9791666666666735E-021  0.49737575000000001     
 chl2c          12  0.30768942500000002        4.5290941298723353E-002  0.30768942500000002        0.0000000000000000        3.3972257247695813E-013
 chl          12   3.0704840536458355E-021   9.9791666666666735E-021  0.30768942500000002     
 chl2c          13  0.75666275000000005        3.7935816987997487E-002  0.75666275000000005        0.0000000000000000        4.8332431989632306E-006
 chl          13   7.5510213308745303E-021   9.9793750001232784E-021  0.75666275000000005     
 chl2c          14  0.39804095000000000        4.6856526101924839E-002  0.39804095000000000        0.0000000000000000        5.7160250278875092E-011
 chl          14   3.9721169802083361E-021   9.9791666666666735E-021  0.39804095000000000     
 chl2c          15  0.25607262500000000        2.0954299823745293E-002  0.25607262500000000        0.0000000000000000        5.4323440910489585E-016
 chl          15   2.5553914036458352E-021   9.9791666666666735E-021  0.25607262500000000     
 chl2c          16  0.71433214999999994        3.7823443882273475E-002  0.71433214999999994        0.0000000000000000        2.1923129171349140E-006
 chl          16   7.1285883994943108E-021   9.9793750001232784E-021  0.71433214999999994     
 chl2c          17  0.62580860000000005        3.7542254757581245E-002  0.62580860000000005        0.0000000000000000        7.6116565567341419E-006
 chl          17   6.2451786977021494E-021   9.9793750001232784E-021  0.62580860000000005     
 chl2c          18  0.47925950000000000        2.5694475239060960E-002  0.47925950000000000        0.0000000000000000        3.3135076592929091E-006
 chl          18   4.7826104270833366E-021   9.9791666666666735E-021  0.47925950000000000     
 chl2c          19  0.63367130000000005        3.7570220750293731E-002  0.63367130000000005        0.0000000000000000        9.2840726248800471E-016
 chl          19   6.3236435295156184E-021   9.9793750001232784E-021  0.63367130000000005     
 chl2c          20  0.50678202500000002        3.7020645196759419E-002  0.50678202500000002        0.0000000000000000        6.0299356558464628E-006
 chl          20   5.0573678707968505E-021   9.9793750001232784E-021  0.50678202500000002     
 chl2c          21  0.71973185000000006        3.7838475073783531E-002  0.71973185000000006        0.0000000000000000        9.3329204651819994E-016
 chl          21   7.1824740306824776E-021   9.9793750001232784E-021  0.71973185000000006     
 chl2c          22  0.64616892500000001        3.7613353106285476E-002  0.64616892500000001        0.0000000000000000        9.3808823860686173E-016
 chl          22   6.4483620160015335E-021   9.9793750001232784E-021  0.64616892500000001     
 chl2c          23  0.41564179999999995        3.2286562315070731E-002  0.41564179999999995        0.0000000000000000        1.2643999886840392E-021
 chl          23   4.1477587958333358E-021   9.9791666666666735E-021  0.41564179999999995     
 chl2c          24  0.57597492500000003        3.7348402796863071E-002  0.57597492500000003        0.0000000000000000        6.9166747145660083E-006
 chl          24   5.7478697672428805E-021   9.9793750001232784E-021  0.57597492500000003     
 chl2c          25  0.31406487500000002        4.5426679235459781E-002  0.31406487500000002        0.0000000000000000        9.6300833534016109E-022
 chl          25   3.1341057317708356E-021   9.9791666666666735E-021  0.31406487500000002     
 chl2c          26  0.49427735000000000        4.7955660680174553E-002  0.49427735000000000        0.0000000000000000        6.9904874962611293E-012
 chl          26   4.9324760552083364E-021   9.9791666666666735E-021  0.49427735000000000     
 chl2c          27  0.30964730000000001        4.5333133499525620E-002  0.30964730000000001        0.0000000000000000        8.6298995455482012E-011
 chl          27   3.0900220145833354E-021   9.9791666666666735E-021  0.30964730000000001     
 chl2c          28  0.28776342500000002        3.1209236063453518E-002  0.28776342500000002        0.0000000000000000        8.1435633990598891E-011
 chl          28   2.8716391786458356E-021   9.9791666666666735E-021  0.28776342500000002     
 chl2c          29  0.68676297499999994        3.7743217595736761E-002  0.68676297499999994        0.0000000000000000        9.3416870024410807E-016
 chl          29   6.8534652637252876E-021   9.9793750001232784E-021  0.68676297499999994     
 chl2c          30  0.38930277499999999        2.5380056985171612E-002  0.38930277499999999        0.0000000000000000        4.4053099423548414E-006
 chl          30   3.8849172755208355E-021   9.9791666666666735E-021  0.38930277499999999     
 chl2c          31  0.63559385000000002        3.7576959810037038E-002  0.63559385000000002        0.0000000000000000        9.3635861121292901E-016
 chl          31   6.3428293769221055E-021   9.9793750001232784E-021  0.63559385000000002     
 chl2c          32  0.24722667500000001        2.0893126428578448E-002  0.24722667500000001        0.0000000000000000        5.4365791596306498E-016
 chl          32   2.4671161942708353E-021   9.9791666666666735E-021  0.24722667500000001     
 chl2c          33  0.60343137499999999        3.7458922634011876E-002  0.60343137499999999        0.0000000000000000        9.2987444881534771E-016
 chl          33   6.0218679779650151E-021   9.9793750001232784E-021  0.60343137499999999     
 chl2c          34  0.38241020000000003        2.5350269098008315E-002  0.38241020000000003        0.0000000000000000        5.3925588788991566E-016
 chl          34   3.8161351208333360E-021   9.9791666666666735E-021  0.38241020000000003     
 chl2c          35  0.49574644999999995        2.5740370148566064E-002  0.49574644999999995        0.0000000000000000        4.3003687388987818E-006
 chl          35   4.9471364489583362E-021   9.9791666666666735E-021  0.49574644999999995     
 chl2c          36  0.69587337500000002        3.7770393924465726E-002  0.69587337500000002        0.0000000000000000        6.9735738776670880E-006
 chl          36   6.9443813617264109E-021   9.9793750001232784E-021  0.69587337500000002     
 chl2c          37  0.33194060000000003        2.1353674699533250E-002  0.33194060000000003        0.0000000000000000        2.4896883130966976E-006
 chl          37   3.3124905708333359E-021   9.9791666666666735E-021  0.33194060000000003     
 chl2c          38  0.38455722500000000        2.1543295686358745E-002  0.38455722500000000        0.0000000000000000        4.2037279596079049E-006
 chl          38   3.8375606411458357E-021   9.9791666666666735E-021  0.38455722500000000     
 chl2c          39  0.47091117500000002        2.5670077108751441E-002  0.47091117500000002        0.0000000000000000        3.7615660574137588E-006
 chl          39   4.6993011005208365E-021   9.9791666666666735E-021  0.47091117500000002     
 chl2c          40  0.66875547499999999        3.7687445774703773E-002  0.66875547499999999        0.0000000000000000        2.2143859339644131E-006
 chl          40   6.6737616684105683E-021   9.9793750001232784E-021  0.66875547499999999     
 chl2c          41  0.44304987499999998        2.5582381488167241E-002  0.44304987499999998        0.0000000000000000        5.3742533649760233E-016
 chl          41   4.4212685442708361E-021   9.9791666666666735E-021  0.44304987499999998     
 chl2c          42  0.76234377499999995        3.7949995630725070E-002  0.76234377499999995        0.0000000000000000        1.2232654096117933E-006
 chl          42   7.6077144097346055E-021   9.9793750001232784E-021  0.76234377499999995     
 chl2c          43  0.29539925000000000        2.1185090152268007E-002  0.29539925000000000        0.0000000000000000        5.4365999716255237E-016
 chl          43   2.9478383489583353E-021   9.9791666666666735E-021  0.29539925000000000     
 chl2c          44  0.62417262500000004        3.7536352708156646E-002  0.62417262500000004        0.0000000000000000        6.3640160872136031E-006
 chl          44   6.2288526896863225E-021   9.9793750001232784E-021  0.62417262500000004     
 chl2c          45  0.37662252499999999        4.6544927192009838E-002  0.37662252499999999        0.0000000000000000        1.1641483566868272E-021
 chl          45   3.7583789473958361E-021   9.9791666666666735E-021  0.37662252499999999     
 chl2c          46  0.51876034999999998        3.7083195475449568E-002  0.51876034999999998        0.0000000000000000        9.3633168653892372E-016
 chl          46   5.1769040678452020E-021   9.9793750001232784E-021  0.51876034999999998     
 chl2c          47  0.61962282499999999        3.7519784612651236E-002  0.61962282499999999        0.0000000000000000        7.5914021975302995E-006
 chl          47   6.1834485293107614E-021   9.9793750001232784E-021  0.61962282499999999     
 chl2c          48  0.71424949999999998        3.7823212136301673E-002  0.71424949999999998        0.0000000000000000        3.3349996037438954E-006
 chl          48   7.1277636041505515E-021   9.9793750001232784E-021  0.71424949999999998     
 chl2c          49  0.53276120000000005        3.7152990741888416E-002  0.53276120000000005        0.0000000000000000        7.5617353227994127E-006
 chl          49   5.3166238003156784E-021   9.9793750001232784E-021  0.53276120000000005     
 chl2c          50  0.38132569999999999        2.1533072915600981E-002  0.38132569999999999        0.0000000000000000        5.4081525387534610E-016
 chl          50   3.8053127145833358E-021   9.9791666666666735E-021  0.38132569999999999     
 chl2c          51  0.22275920000000002        2.0700971146093840E-002  0.22275920000000002        0.0000000000000000        4.2604307286936247E-006
 chl          51   2.2229511833333350E-021   9.9791666666666735E-021  0.22275920000000002     
 chl2c          52  0.63698869999999996        3.7581825176985564E-002  0.63698869999999996        0.0000000000000000        3.9024292823381773E-006
 chl          52   6.3567491081410264E-021   9.9793750001232784E-021  0.63698869999999996     
 chl2c          53  0.75269794999999995        3.7925801262726190E-002  0.75269794999999995        0.0000000000000000        4.5443719516290574E-007
 chl          53   7.5114551048740406E-021   9.9793750001232784E-021  0.75269794999999995     
 chl2c          54  0.51861124999999997        3.7082433371327092E-002  0.51861124999999997        0.0000000000000000        7.5216490858189354E-006
 chl          54   5.1754161430326832E-021   9.9793750001232784E-021  0.51861124999999997     
 chl2c          55  0.57808280000000001        3.7357235588660491E-002  0.57808280000000001        0.0000000000000000        9.3785018343920932E-016
 chl          55   5.7689050423212655E-021   9.9793750001232784E-021  0.57808280000000001     
 chl2c          56  0.61626080000000005        3.7507394187257688E-002  0.61626080000000005        0.0000000000000000        6.6763672276811127E-006
 chl          56   6.1498976210759726E-021   9.9793750001232784E-021  0.61626080000000005     
 chl2c          57  0.68163462500000005        3.7727617852646313E-002  0.68163462500000005        0.0000000000000000        9.3832749255584195E-016
 chl          57   6.8022875359434064E-021   9.9793750001232784E-021  0.68163462500000005     
 chl2c          58  0.69416802499999997        3.7765358178394853E-002  0.69416802499999997        0.0000000000000000        9.3738648210917827E-016
 chl          58   6.9273630345699504E-021   9.9793750001232784E-021  0.69416802499999997     
 chl2c          59  0.53705127500000005        3.7173699120809672E-002  0.53705127500000005        0.0000000000000000        9.3909806528459968E-016
 chl          59   5.3594360675193322E-021   9.9793750001232784E-021  0.53705127500000005     
 chl2c          60  0.64452155000000000        3.7607757740906807E-002  0.64452155000000000        0.0000000000000000        9.2749755374815173E-016
 chl          60   6.4319222431107059E-021   9.9793750001232784E-021  0.64452155000000000     
 chl2c          61  0.70794139999999994        3.7805373434125003E-002  0.70794139999999994        0.0000000000000000        7.3990353888627165E-006
 chl          61   7.0648127087122735E-021   9.9793750001232784E-021  0.70794139999999994     
 chl2c          62  0.76481592499999995        3.7956103087269030E-002  0.76481592499999995        0.0000000000000000        3.1147198720204805E-006
 chl          62   7.6323849216411605E-021   9.9793750001232784E-021  0.76481592499999995     
 chl2c          63  0.72597904999999996        3.7855601011927406E-002  0.72597904999999996        0.0000000000000000        9.2795586455783651E-016
 chl          63   7.2448171821832477E-021   9.9793750001232784E-021  0.72597904999999996     
 chl2c          64  0.48435739999999999        2.5708982294816416E-002  0.48435739999999999        0.0000000000000000        4.3281273725952082E-006
 chl          64   4.8334832208333366E-021   9.9791666666666735E-021  0.48435739999999999     
 chl2c          65  0.76379975000000000        3.7953597170552002E-002  0.76379975000000000        0.0000000000000000        9.3121357239171242E-016
 chl          65   7.6222441302504102E-021   9.9793750001232784E-021  0.76379975000000000     
 chl2c          66  0.35213202499999996        3.1840477731474713E-002  0.35213202499999996        0.0000000000000000        7.6176731290486682E-012
 chl          66   3.5139841661458357E-021   9.9791666666666735E-021  0.35213202499999996     
 chl2c          67  0.75736760000000003        3.7937587124568600E-002  0.75736760000000003        0.0000000000000000        7.5590248009374352E-006
 chl          67   7.5580552933433669E-021   9.9793750001232784E-021  0.75736760000000003     
 chl2c          68  0.72590779999999999        3.7855407263856986E-002  0.72590779999999999        0.0000000000000000        9.3869611776359211E-016
 chl          68   7.2441061517144891E-021   9.9793750001232784E-021  0.72590779999999999     
 chl2c          69  0.45524217500000003        2.1732330561541505E-002  0.45524217500000003        0.0000000000000000        5.3964169760223817E-016
 chl          69   4.5429375380208368E-021   9.9791666666666735E-021  0.45524217500000003     
 chl2c          70  0.48694062500000002        3.2658010878182209E-002  0.48694062500000002        0.0000000000000000        1.0059432117080807E-010
 chl          70   4.8592616536458370E-021   9.9791666666666735E-021  0.48694062500000002     
 chl2c          71  0.23986107500000001        4.3481058864416305E-002  0.23986107500000001        0.0000000000000000        1.0705691652316138E-021
 chl          71   2.3936136442708349E-021   9.9791666666666735E-021  0.23986107500000001     
 chl2c          72  0.62790522500000001        3.7549776402781669E-002  0.62790522500000001        0.0000000000000000        4.8610211882046727E-006
 chl          72   6.2661017048117824E-021   9.9793750001232784E-021  0.62790522500000001     
 chl2c          73  0.35362212500000001        3.1852614277819484E-002  0.35362212500000001        0.0000000000000000        8.4578404828406597E-012
 chl          73   3.5288541223958358E-021   9.9791666666666735E-021  0.35362212500000001     
 chl2c          74  0.64719590000000005        3.7616827685877569E-002  0.64719590000000005        0.0000000000000000        9.3433105409486647E-016
 chl          74   6.4586105846422856E-021   9.9793750001232784E-021  0.64719590000000005     
 chl2c          75  0.71554212500000003        3.7826830779512356E-002  0.71554212500000003        0.0000000000000000        7.1175727439584476E-006
 chl          75   7.1406631937600864E-021   9.9793750001232784E-021  0.71554212500000003     
 chl2c          76  0.55513977500000000        3.7257729557919804E-002  0.55513977500000000        0.0000000000000000        9.3441787712600981E-016
 chl          76   5.5399479922090618E-021   9.9793750001232784E-021  0.55513977500000000     
 chl2c          77  0.52973029999999999        3.7138172437479272E-002  0.52973029999999999        0.0000000000000000        9.2657696505916370E-016
 chl          77   5.2863773126278043E-021   9.9793750001232784E-021  0.52973029999999999     
 chl2c          78  0.45117492500000000        4.7515248899399322E-002  0.45117492500000000        0.0000000000000000        1.3533828362996540E-020
 chl          78   4.5023497723958366E-021   9.9791666666666735E-021  0.45117492500000000     
 prod   4.3437154490176412E-012   0.0000000000000000        10.000000000000000     
 fe   1.3003902332037218E-003
(PID.TID 0000.0001) // =======================================================
(PID.TID 0000.0001) // Begin MONITOR dynamic field statistics
(PID.TID 0000.0001) // =======================================================
(PID.TID 0000.0001) %MON time_tsnumber                =                     3
(PID.TID 0000.0001) %MON time_secondsf                =   1.0800000000000000E+04
(PID.TID 0000.0001) %MON dynstat_eta_max              =   0.0000000000000000E+00
(PID.TID 0000.0001) %MON dynstat_eta_min              =   0.0000000000000000E+00
(PID.TID 0000.0001) %MON dynstat_eta_mean             =   0.0000000000000000E+00
(PID.TID 0000.0001) %MON dynstat_eta_sd               =   0.0000000000000000E+00
(PID.TID 0000.0001) %MON dynstat_eta_del2             =   0.0000000000000000E+00
(PID.TID 0000.0001) %MON dynstat_uvel_max             =   0.0000000000000000E+00
(PID.TID 0000.0001) %MON dynstat_uvel_min             =   0.0000000000000000E+00
(PID.TID 0000.0001) %MON dynstat_uvel_mean            =   0.0000000000000000E+00
(PID.TID 0000.0001) %MON dynstat_uvel_sd              =   0.0000000000000000E+00
(PID.TID 0000.0001) %MON dynstat_uvel_del2            =   0.0000000000000000E+00
(PID.TID 0000.0001) %MON dynstat_vvel_max             =   0.0000000000000000E+00
(PID.TID 0000.0001) %MON dynstat_vvel_min             =   0.0000000000000000E+00
(PID.TID 0000.0001) %MON dynstat_vvel_mean            =   0.0000000000000000E+00
(PID.TID 0000.0001) %MON dynstat_vvel_sd              =   0.0000000000000000E+00
(PID.TID 0000.0001) %MON dynstat_vvel_del2            =   0.0000000000000000E+00
(PID.TID 0000.0001) %MON dynstat_wvel_max             =   0.0000000000000000E+00
(PID.TID 0000.0001) %MON dynstat_wvel_min             =   0.0000000000000000E+00
(PID.TID 0000.0001) %MON dynstat_wvel_mean            =   0.0000000000000000E+00
(PID.TID 0000.0001) %MON dynstat_wvel_sd              =   0.0000000000000000E+00
(PID.TID 0000.0001) %MON dynstat_wvel_del2            =   0.0000000000000000E+00
(PID.TID 0000.0001) %MON dynstat_theta_max            =   2.6316641728911865E+01
(PID.TID 0000.0001) %MON dynstat_theta_min            =   2.6737007672781163E+00
(PID.TID 0000.0001) %MON dynstat_theta_mean           =   5.4735157557642413E+00
(PID.TID 0000.0001) %MON dynstat_theta_sd             =   5.1968480490481044E+00
(PID.TID 0000.0001) %MON dynstat_theta_del2           =   0.0000000000000000E+00
(PID.TID 0000.0001) %MON dynstat_salt_max             =   3.5000000000000000E+01
(PID.TID 0000.0001) %MON dynstat_salt_min             =   3.5000000000000000E+01
(PID.TID 0000.0001) %MON dynstat_salt_mean            =   3.5000000000000007E+01
(PID.TID 0000.0001) %MON dynstat_salt_sd              =   7.1054273576010019E-15
(PID.TID 0000.0001) %MON dynstat_salt_del2            =   0.0000000000000000E+00
(PID.TID 0000.0001) %MON dynstat_sst_max              =   2.6316641728911865E+01
(PID.TID 0000.0001) %MON dynstat_sst_min              =   2.6316641728911865E+01
(PID.TID 0000.0001) %MON dynstat_sst_mean             =   2.6316641728911865E+01
(PID.TID 0000.0001) %MON dynstat_sst_sd               =   0.0000000000000000E+00
(PID.TID 0000.0001) %MON dynstat_sst_del2             =   0.0000000000000000E+00
(PID.TID 0000.0001) %MON dynstat_sss_max              =   3.5000000000000000E+01
(PID.TID 0000.0001) %MON dynstat_sss_min              =   3.5000000000000000E+01
(PID.TID 0000.0001) %MON dynstat_sss_mean             =   3.5000000000000000E+01
(PID.TID 0000.0001) %MON dynstat_sss_sd               =   0.0000000000000000E+00
(PID.TID 0000.0001) %MON dynstat_sss_del2             =   0.0000000000000000E+00
(PID.TID 0000.0001) %MON forcing_qnet_max             =   0.0000000000000000E+00
(PID.TID 0000.0001) %MON forcing_qnet_min             =   0.0000000000000000E+00
(PID.TID 0000.0001) %MON forcing_qnet_mean            =   0.0000000000000000E+00
(PID.TID 0000.0001) %MON forcing_qnet_sd              =   0.0000000000000000E+00
(PID.TID 0000.0001) %MON forcing_qnet_del2            =   0.0000000000000000E+00
(PID.TID 0000.0001) %MON forcing_qsw_max              =   0.0000000000000000E+00
(PID.TID 0000.0001) %MON forcing_qsw_min              =   0.0000000000000000E+00
(PID.TID 0000.0001) %MON forcing_qsw_mean             =   0.0000000000000000E+00
(PID.TID 0000.0001) %MON forcing_qsw_sd               =   0.0000000000000000E+00
(PID.TID 0000.0001) %MON forcing_qsw_del2             =   0.0000000000000000E+00
(PID.TID 0000.0001) %MON forcing_empmr_max            =   0.0000000000000000E+00
(PID.TID 0000.0001) %MON forcing_empmr_min            =   0.0000000000000000E+00
(PID.TID 0000.0001) %MON forcing_empmr_mean           =   0.0000000000000000E+00
(PID.TID 0000.0001) %MON forcing_empmr_sd             =   0.0000000000000000E+00
(PID.TID 0000.0001) %MON forcing_empmr_del2           =   0.0000000000000000E+00
(PID.TID 0000.0001) %MON forcing_fu_max               =   0.0000000000000000E+00
(PID.TID 0000.0001) %MON forcing_fu_min               =   0.0000000000000000E+00
(PID.TID 0000.0001) %MON forcing_fu_mean              =   0.0000000000000000E+00
(PID.TID 0000.0001) %MON forcing_fu_sd                =   0.0000000000000000E+00
(PID.TID 0000.0001) %MON forcing_fu_del2              =   0.0000000000000000E+00
(PID.TID 0000.0001) %MON forcing_fv_max               =   0.0000000000000000E+00
(PID.TID 0000.0001) %MON forcing_fv_min               =   0.0000000000000000E+00
(PID.TID 0000.0001) %MON forcing_fv_mean              =   0.0000000000000000E+00
(PID.TID 0000.0001) %MON forcing_fv_sd                =   0.0000000000000000E+00
(PID.TID 0000.0001) %MON forcing_fv_del2              =   0.0000000000000000E+00
(PID.TID 0000.0001) %MON advcfl_uvel_max              =   0.0000000000000000E+00
(PID.TID 0000.0001) %MON advcfl_vvel_max              =   0.0000000000000000E+00
(PID.TID 0000.0001) %MON advcfl_wvel_max              =   0.0000000000000000E+00
(PID.TID 0000.0001) %MON advcfl_W_hf_max              =   0.0000000000000000E+00
(PID.TID 0000.0001) %MON pe_b_mean                    =   0.0000000000000000E+00
(PID.TID 0000.0001) %MON ke_max                       =   0.0000000000000000E+00
(PID.TID 0000.0001) %MON ke_mean                      =   0.0000000000000000E+00
(PID.TID 0000.0001) %MON ke_vol                       =   4.1199767883484609E+13
(PID.TID 0000.0001) %MON vort_r_min                   =   0.0000000000000000E+00
(PID.TID 0000.0001) %MON vort_r_max                   =   0.0000000000000000E+00
(PID.TID 0000.0001) %MON vort_a_mean                  =  -4.5067801836624727E-05
(PID.TID 0000.0001) %MON vort_a_sd                    =  -4.1359030627651384E-25
(PID.TID 0000.0001) %MON vort_p_mean                  =  -4.5067801836624727E-05
(PID.TID 0000.0001) %MON vort_p_sd                    =   0.0000000000000000E+00
(PID.TID 0000.0001) %MON surfExpan_theta_mean         =   0.0000000000000000E+00
(PID.TID 0000.0001) %MON surfExpan_salt_mean          =   0.0000000000000000E+00
(PID.TID 0000.0001) // =======================================================
(PID.TID 0000.0001) // End MONITOR dynamic field statistics
(PID.TID 0000.0001) // =======================================================
(PID.TID 0000.0001) // =======================================================
(PID.TID 0000.0001) // Begin MONITOR ptracer field statistics
(PID.TID 0000.0001) // =======================================================
(PID.TID 0000.0001) %MON trcstat_ptracer01_max        =   2.0000000000000014E+03
(PID.TID 0000.0001) %MON trcstat_ptracer01_min        =   1.9999994474431728E+03
(PID.TID 0000.0001) %MON trcstat_ptracer01_mean       =   1.9999999836666550E+03
(PID.TID 0000.0001) %MON trcstat_ptracer01_sd         =   8.5490929976975090E-05
(PID.TID 0000.0001) %MON trcstat_ptracer01_del2       =   0.0000000000000000E+00
(PID.TID 0000.0001) %MON trcstat_ptracer02_max        =   2.5646215043597455E-02
(PID.TID 0000.0001) %MON trcstat_ptracer02_min        =   1.8767602871184468E-07
(PID.TID 0000.0001) %MON trcstat_ptracer02_mean       =   6.0761841661557264E-04
(PID.TID 0000.0001) %MON trcstat_ptracer02_sd         =   3.2557512774119028E-03
(PID.TID 0000.0001) %MON trcstat_ptracer02_del2       =   0.0000000000000000E+00
(PID.TID 0000.0001) %MON trcstat_ptracer03_max        =   1.8248793535505015E-02
(PID.TID 0000.0001) %MON trcstat_ptracer03_min        =   3.8780993188188484E-06
(PID.TID 0000.0001) %MON trcstat_ptracer03_mean       =   6.0460099797460416E-04
(PID.TID 0000.0001) %MON trcstat_ptracer03_sd         =   1.9423023846278139E-03
(PID.TID 0000.0001) %MON trcstat_ptracer03_del2       =   0.0000000000000000E+00
(PID.TID 0000.0001) %MON trcstat_ptracer04_max        =   3.3903494635908771E+01
(PID.TID 0000.0001) %MON trcstat_ptracer04_min        =   4.6436534242632700E-02
(PID.TID 0000.0001) %MON trcstat_ptracer04_mean       =   2.3502391123640614E+01
(PID.TID 0000.0001) %MON trcstat_ptracer04_sd         =   7.8161979494198688E+00
(PID.TID 0000.0001) %MON trcstat_ptracer04_del2       =   0.0000000000000000E+00
(PID.TID 0000.0001) %MON trcstat_ptracer05_max        =   2.2436997399334309E+00
(PID.TID 0000.0001) %MON trcstat_ptracer05_min        =   2.1025506683139034E-01
(PID.TID 0000.0001) %MON trcstat_ptracer05_mean       =   1.5821340747921406E+00
(PID.TID 0000.0001) %MON trcstat_ptracer05_sd         =   4.6734973225476512E-01
(PID.TID 0000.0001) %MON trcstat_ptracer05_del2       =   0.0000000000000000E+00
(PID.TID 0000.0001) %MON trcstat_ptracer06_max        =   3.9387400882395667E+01
(PID.TID 0000.0001) %MON trcstat_ptracer06_min        =   1.2247970051087458E+00
(PID.TID 0000.0001) %MON trcstat_ptracer06_mean       =   2.9621890532420064E+01
(PID.TID 0000.0001) %MON trcstat_ptracer06_sd         =   1.1270583368405637E+01
(PID.TID 0000.0001) %MON trcstat_ptracer06_del2       =   0.0000000000000000E+00
(PID.TID 0000.0001) %MON trcstat_ptracer07_max        =   1.3003902332037218E-03
(PID.TID 0000.0001) %MON trcstat_ptracer07_min        =   1.2999561756367169E-03
(PID.TID 0000.0001) %MON trcstat_ptracer07_mean       =   1.2999577380458137E-03
(PID.TID 0000.0001) %MON trcstat_ptracer07_sd         =   2.3177080154992059E-08
(PID.TID 0000.0001) %MON trcstat_ptracer07_del2       =   0.0000000000000000E+00
(PID.TID 0000.0001) %MON trcstat_ptracer08_max        =   5.4764297559250076E-04
(PID.TID 0000.0001) %MON trcstat_ptracer08_min        =  -7.4389180468748906E-19
(PID.TID 0000.0001) %MON trcstat_ptracer08_mean       =   1.6329647300446807E-05
(PID.TID 0000.0001) %MON trcstat_ptracer08_sd         =   8.5607937559581304E-05
(PID.TID 0000.0001) %MON trcstat_ptracer08_del2       =   0.0000000000000000E+00
(PID.TID 0000.0001) %MON trcstat_ptracer09_max        =   8.1783875435210124E-02
(PID.TID 0000.0001) %MON trcstat_ptracer09_min        =  -9.9185573958327500E-20
(PID.TID 0000.0001) %MON trcstat_ptracer09_mean       =   3.4336490431471022E-03
(PID.TID 0000.0001) %MON trcstat_ptracer09_sd         =   1.4782985148697829E-02
(PID.TID 0000.0001) %MON trcstat_ptracer09_del2       =   0.0000000000000000E+00
(PID.TID 0000.0001) %MON trcstat_ptracer10_max        =   5.1114922147006327E-03
(PID.TID 0000.0001) %MON trcstat_ptracer10_min        =  -6.1990983723954688E-21
(PID.TID 0000.0001) %MON trcstat_ptracer10_mean       =   2.1460306519669389E-04
(PID.TID 0000.0001) %MON trcstat_ptracer10_sd         =   9.2393657179361429E-04
(PID.TID 0000.0001) %MON trcstat_ptracer10_del2       =   0.0000000000000000E+00
(PID.TID 0000.0001) %MON trcstat_ptracer11_max        =   5.1114918558835611E-06
(PID.TID 0000.0001) %MON trcstat_ptracer11_min        =  -6.1990983723954707E-24
(PID.TID 0000.0001) %MON trcstat_ptracer11_mean       =   2.1460306550281419E-07
(PID.TID 0000.0001) %MON trcstat_ptracer11_sd         =   9.2393657145189859E-07
(PID.TID 0000.0001) %MON trcstat_ptracer11_del2       =   0.0000000000000000E+00
(PID.TID 0000.0001) %MON trcstat_ptracer12_max        =   3.0988830182246218E-04
(PID.TID 0000.0001) %MON trcstat_ptracer12_min        =  -4.2123992968748788E-19
(PID.TID 0000.0001) %MON trcstat_ptracer12_mean       =   9.2449030452236719E-06
(PID.TID 0000.0001) %MON trcstat_ptracer12_sd         =   4.8342805353860158E-05
(PID.TID 0000.0001) %MON trcstat_ptracer12_del2       =   0.0000000000000000E+00
(PID.TID 0000.0001) %MON trcstat_ptracer13_max        =   4.3481775392785194E-03
(PID.TID 0000.0001) %MON trcstat_ptracer13_min        =   1.8813920027646428E-05
(PID.TID 0000.0001) %MON trcstat_ptracer13_mean       =   1.2609873541283003E-03
(PID.TID 0000.0001) %MON trcstat_ptracer13_sd         =   1.5428342729779509E-03
(PID.TID 0000.0001) %MON trcstat_ptracer13_del2       =   0.0000000000000000E+00
(PID.TID 0000.0001) %MON trcstat_ptracer14_max        =   2.7176109620490746E-04
(PID.TID 0000.0001) %MON trcstat_ptracer14_min        =   1.1758700017279017E-06
(PID.TID 0000.0001) %MON trcstat_ptracer14_mean       =   7.8811709633018771E-05
(PID.TID 0000.0001) %MON trcstat_ptracer14_sd         =   9.6427142061121930E-05
(PID.TID 0000.0001) %MON trcstat_ptracer14_del2       =   0.0000000000000000E+00
(PID.TID 0000.0001) %MON trcstat_ptracer15_max        =   1.6242578554935695E-02
(PID.TID 0000.0001) %MON trcstat_ptracer15_min        =   1.1396871723565823E-03
(PID.TID 0000.0001) %MON trcstat_ptracer15_mean       =   5.4880115047607602E-03
(PID.TID 0000.0001) %MON trcstat_ptracer15_sd         =   5.1683224460107192E-03
(PID.TID 0000.0001) %MON trcstat_ptracer15_del2       =   0.0000000000000000E+00
(PID.TID 0000.0001) %MON trcstat_ptracer16_max        =   2.7176111210358430E-07
(PID.TID 0000.0001) %MON trcstat_ptracer16_min        =   1.1758698733136132E-09
(PID.TID 0000.0001) %MON trcstat_ptracer16_mean       =   7.8811710158323228E-08
(PID.TID 0000.0001) %MON trcstat_ptracer16_sd         =   9.6427144116345058E-08
(PID.TID 0000.0001) %MON trcstat_ptracer16_del2       =   0.0000000000000000E+00
(PID.TID 0000.0001) %MON trcstat_ptracer17_max        =   0.0000000000000000E+00
(PID.TID 0000.0001) %MON trcstat_ptracer17_min        =   0.0000000000000000E+00
(PID.TID 0000.0001) %MON trcstat_ptracer17_mean       =   0.0000000000000000E+00
(PID.TID 0000.0001) %MON trcstat_ptracer17_sd         =   0.0000000000000000E+00
(PID.TID 0000.0001) %MON trcstat_ptracer17_del2       =   0.0000000000000000E+00
(PID.TID 0000.0001) %MON trcstat_ptracer18_max        =   8.7049046216192887E-04
(PID.TID 0000.0001) %MON trcstat_ptracer18_min        =   1.4938210089777281E-20
(PID.TID 0000.0001) %MON trcstat_ptracer18_mean       =   2.5990861176215144E-05
(PID.TID 0000.0001) %MON trcstat_ptracer18_sd         =   1.3606662238611631E-04
(PID.TID 0000.0001) %MON trcstat_ptracer18_del2       =   0.0000000000000000E+00
(PID.TID 0000.0001) %MON trcstat_ptracer19_max        =   8.8494083734274242E-04
(PID.TID 0000.0001) %MON trcstat_ptracer19_min        =   1.4937586805555562E-20
(PID.TID 0000.0001) %MON trcstat_ptracer19_mean       =   2.6359636890915918E-05
(PID.TID 0000.0001) %MON trcstat_ptracer19_sd         =   1.3837239757608173E-04
(PID.TID 0000.0001) %MON trcstat_ptracer19_del2       =   0.0000000000000000E+00
(PID.TID 0000.0001) %MON trcstat_ptracer20_max        =   8.7049046216203588E-04
(PID.TID 0000.0001) %MON trcstat_ptracer20_min        =   1.4938210089777281E-20
(PID.TID 0000.0001) %MON trcstat_ptracer20_mean       =   2.5957705678936610E-05
(PID.TID 0000.0001) %MON trcstat_ptracer20_sd         =   1.3603751220392696E-04
(PID.TID 0000.0001) %MON trcstat_ptracer20_del2       =   0.0000000000000000E+00
(PID.TID 0000.0001) %MON trcstat_ptracer21_max        =   8.9570942053339788E-04
(PID.TID 0000.0001) %MON trcstat_ptracer21_min        =   1.4938210089777281E-20
(PID.TID 0000.0001) %MON trcstat_ptracer21_mean       =   2.6711411850066362E-05
(PID.TID 0000.0001) %MON trcstat_ptracer21_sd         =   1.3989390464868334E-04
(PID.TID 0000.0001) %MON trcstat_ptracer21_del2       =   0.0000000000000000E+00
(PID.TID 0000.0001) %MON trcstat_ptracer22_max        =   8.9245239582625509E-04
(PID.TID 0000.0001) %MON trcstat_ptracer22_min        =   1.4937586805555562E-20
(PID.TID 0000.0001) %MON trcstat_ptracer22_mean       =   2.6567207376318190E-05
(PID.TID 0000.0001) %MON trcstat_ptracer22_sd         =   1.3944847525799078E-04
(PID.TID 0000.0001) %MON trcstat_ptracer22_del2       =   0.0000000000000000E+00
(PID.TID 0000.0001) %MON trcstat_ptracer23_max        =   8.7054553376146430E-04
(PID.TID 0000.0001) %MON trcstat_ptracer23_min        =   1.4937586805555562E-20
(PID.TID 0000.0001) %MON trcstat_ptracer23_mean       =   2.5957707294260906E-05
(PID.TID 0000.0001) %MON trcstat_ptracer23_sd         =   1.3608945082448933E-04
(PID.TID 0000.0001) %MON trcstat_ptracer23_del2       =   0.0000000000000000E+00
(PID.TID 0000.0001) %MON trcstat_ptracer24_max        =   8.8323516508150869E-04
(PID.TID 0000.0001) %MON trcstat_ptracer24_min        =   1.4937586805555562E-20
(PID.TID 0000.0001) %MON trcstat_ptracer24_mean       =   2.6309554483249664E-05
(PID.TID 0000.0001) %MON trcstat_ptracer24_sd         =   1.3806282536550700E-04
(PID.TID 0000.0001) %MON trcstat_ptracer24_del2       =   0.0000000000000000E+00
(PID.TID 0000.0001) %MON trcstat_ptracer25_max        =   8.7054553376123315E-04
(PID.TID 0000.0001) %MON trcstat_ptracer25_min        =   1.4937586805555562E-20
(PID.TID 0000.0001) %MON trcstat_ptracer25_mean       =   2.5973663063746365E-05
(PID.TID 0000.0001) %MON trcstat_ptracer25_sd         =   1.3614967149498512E-04
(PID.TID 0000.0001) %MON trcstat_ptracer25_del2       =   0.0000000000000000E+00
(PID.TID 0000.0001) %MON trcstat_ptracer26_max        =   8.7553802630793947E-04
(PID.TID 0000.0001) %MON trcstat_ptracer26_min        =   1.4937586805555562E-20
(PID.TID 0000.0001) %MON trcstat_ptracer26_mean       =   2.6188192201719164E-05
(PID.TID 0000.0001) %MON trcstat_ptracer26_sd         =   1.3708408823419015E-04
(PID.TID 0000.0001) %MON trcstat_ptracer26_del2       =   0.0000000000000000E+00
(PID.TID 0000.0001) %MON trcstat_ptracer27_max        =   8.9677348172404543E-04
(PID.TID 0000.0001) %MON trcstat_ptracer27_min        =   1.4937586805555562E-20
(PID.TID 0000.0001) %MON trcstat_ptracer27_mean       =   2.6700989439742383E-05
(PID.TID 0000.0001) %MON trcstat_ptracer27_sd         =   1.4014038837249098E-04
(PID.TID 0000.0001) %MON trcstat_ptracer27_del2       =   0.0000000000000000E+00
(PID.TID 0000.0001) %MON trcstat_ptracer28_max        =   8.7054553376186177E-04
(PID.TID 0000.0001) %MON trcstat_ptracer28_min        =   1.4937586805555562E-20
(PID.TID 0000.0001) %MON trcstat_ptracer28_mean       =   2.5957705673281039E-05
(PID.TID 0000.0001) %MON trcstat_ptracer28_sd         =   1.3608945110166884E-04
(PID.TID 0000.0001) %MON trcstat_ptracer28_del2       =   0.0000000000000000E+00
(PID.TID 0000.0001) %MON trcstat_ptracer29_max        =   8.7054553376118891E-04
(PID.TID 0000.0001) %MON trcstat_ptracer29_min        =   1.4937586805555562E-20
(PID.TID 0000.0001) %MON trcstat_ptracer29_mean       =   2.5957705673260114E-05
(PID.TID 0000.0001) %MON trcstat_ptracer29_sd         =   1.3608945110156904E-04
(PID.TID 0000.0001) %MON trcstat_ptracer29_del2       =   0.0000000000000000E+00
(PID.TID 0000.0001) %MON trcstat_ptracer30_max        =   8.7049046195956882E-04
(PID.TID 0000.0001) %MON trcstat_ptracer30_min        =   1.4938210089777281E-20
(PID.TID 0000.0001) %MON trcstat_ptracer30_mean       =   2.5957754519701678E-05
(PID.TID 0000.0001) %MON trcstat_ptracer30_sd         =   1.3603750311448113E-04
(PID.TID 0000.0001) %MON trcstat_ptracer30_del2       =   0.0000000000000000E+00
(PID.TID 0000.0001) %MON trcstat_ptracer31_max        =   8.7054553376126448E-04
(PID.TID 0000.0001) %MON trcstat_ptracer31_min        =   1.4937586805555562E-20
(PID.TID 0000.0001) %MON trcstat_ptracer31_mean       =   2.5957705673263766E-05
(PID.TID 0000.0001) %MON trcstat_ptracer31_sd         =   1.3608945110158457E-04
(PID.TID 0000.0001) %MON trcstat_ptracer31_del2       =   0.0000000000000000E+00
(PID.TID 0000.0001) %MON trcstat_ptracer32_max        =   9.0075270077265713E-04
(PID.TID 0000.0001) %MON trcstat_ptracer32_min        =   1.4937586805555562E-20
(PID.TID 0000.0001) %MON trcstat_ptracer32_mean       =   2.6818304135924812E-05
(PID.TID 0000.0001) %MON trcstat_ptracer32_sd         =   1.4075789510679501E-04
(PID.TID 0000.0001) %MON trcstat_ptracer32_del2       =   0.0000000000000000E+00
(PID.TID 0000.0001) %MON trcstat_ptracer33_max        =   8.7049046216209605E-04
(PID.TID 0000.0001) %MON trcstat_ptracer33_min        =   1.4938210089777281E-20
(PID.TID 0000.0001) %MON trcstat_ptracer33_mean       =   2.5958458695311515E-05
(PID.TID 0000.0001) %MON trcstat_ptracer33_sd         =   1.3603739714764161E-04
(PID.TID 0000.0001) %MON trcstat_ptracer33_del2       =   0.0000000000000000E+00
(PID.TID 0000.0001) %MON trcstat_ptracer34_max        =   8.7049046216209518E-04
(PID.TID 0000.0001) %MON trcstat_ptracer34_min        =   1.4938210089777281E-20
(PID.TID 0000.0001) %MON trcstat_ptracer34_mean       =   2.5957705678938358E-05
(PID.TID 0000.0001) %MON trcstat_ptracer34_sd         =   1.3603751220393626E-04
(PID.TID 0000.0001) %MON trcstat_ptracer34_del2       =   0.0000000000000000E+00
(PID.TID 0000.0001) %MON trcstat_ptracer35_max        =   8.7054553376192108E-04
(PID.TID 0000.0001) %MON trcstat_ptracer35_min        =   1.4937586805555562E-20
(PID.TID 0000.0001) %MON trcstat_ptracer35_mean       =   2.5957705673282770E-05
(PID.TID 0000.0001) %MON trcstat_ptracer35_sd         =   1.3608945110167803E-04
(PID.TID 0000.0001) %MON trcstat_ptracer35_del2       =   0.0000000000000000E+00
(PID.TID 0000.0001) %MON trcstat_ptracer36_max        =   8.8312346092665642E-04
(PID.TID 0000.0001) %MON trcstat_ptracer36_min        =   1.4938210089777281E-20
(PID.TID 0000.0001) %MON trcstat_ptracer36_mean       =   2.6365138778360954E-05
(PID.TID 0000.0001) %MON trcstat_ptracer36_sd         =   1.3800625766745400E-04
(PID.TID 0000.0001) %MON trcstat_ptracer36_del2       =   0.0000000000000000E+00
(PID.TID 0000.0001) %MON trcstat_ptracer37_max        =   8.7049046195969253E-04
(PID.TID 0000.0001) %MON trcstat_ptracer37_min        =   1.4938210089777281E-20
(PID.TID 0000.0001) %MON trcstat_ptracer37_mean       =   2.5957705741800136E-05
(PID.TID 0000.0001) %MON trcstat_ptracer37_sd         =   1.3603751216041633E-04
(PID.TID 0000.0001) %MON trcstat_ptracer37_del2       =   0.0000000000000000E+00
(PID.TID 0000.0001) %MON trcstat_ptracer38_max        =   8.7480943780151069E-04
(PID.TID 0000.0001) %MON trcstat_ptracer38_min        =   1.4938210089777281E-20
(PID.TID 0000.0001) %MON trcstat_ptracer38_mean       =   2.6182513607336058E-05
(PID.TID 0000.0001) %MON trcstat_ptracer38_sd         =   1.3693911372119437E-04
(PID.TID 0000.0001) %MON trcstat_ptracer38_del2       =   0.0000000000000000E+00
(PID.TID 0000.0001) %MON trcstat_ptracer39_max        =   9.0057478156645751E-04
(PID.TID 0000.0001) %MON trcstat_ptracer39_min        =   1.4938210089777281E-20
(PID.TID 0000.0001) %MON trcstat_ptracer39_mean       =   2.6855149008593627E-05
(PID.TID 0000.0001) %MON trcstat_ptracer39_sd         =   1.4077987596474207E-04
(PID.TID 0000.0001) %MON trcstat_ptracer39_del2       =   0.0000000000000000E+00
(PID.TID 0000.0001) %MON trcstat_ptracer40_max        =   8.7054553376140998E-04
(PID.TID 0000.0001) %MON trcstat_ptracer40_min        =   1.4937586805555562E-20
(PID.TID 0000.0001) %MON trcstat_ptracer40_mean       =   2.5957707056966855E-05
(PID.TID 0000.0001) %MON trcstat_ptracer40_sd         =   1.3608945089271378E-04
(PID.TID 0000.0001) %MON trcstat_ptracer40_del2       =   0.0000000000000000E+00
(PID.TID 0000.0001) %MON trcstat_ptracer41_max        =   8.7049046195943893E-04
(PID.TID 0000.0001) %MON trcstat_ptracer41_min        =   1.4938210089777281E-20
(PID.TID 0000.0001) %MON trcstat_ptracer41_mean       =   2.5957705673275039E-05
(PID.TID 0000.0001) %MON trcstat_ptracer41_sd         =   1.3603751217344963E-04
(PID.TID 0000.0001) %MON trcstat_ptracer41_del2       =   0.0000000000000000E+00
(PID.TID 0000.0001) %MON trcstat_ptracer42_max        =   8.7054553376122372E-04
(PID.TID 0000.0001) %MON trcstat_ptracer42_min        =   1.4937586805555562E-20
(PID.TID 0000.0001) %MON trcstat_ptracer42_mean       =   2.5957706473471621E-05
(PID.TID 0000.0001) %MON trcstat_ptracer42_sd         =   1.3608945097692227E-04
(PID.TID 0000.0001) %MON trcstat_ptracer42_del2       =   0.0000000000000000E+00
(PID.TID 0000.0001) %MON trcstat_ptracer43_max        =   8.7054553376116571E-04
(PID.TID 0000.0001) %MON trcstat_ptracer43_min        =   1.4937586805555562E-20
(PID.TID 0000.0001) %MON trcstat_ptracer43_mean       =   2.5957705673259440E-05
(PID.TID 0000.0001) %MON trcstat_ptracer43_sd         =   1.3608945110156525E-04
(PID.TID 0000.0001) %MON trcstat_ptracer43_del2       =   0.0000000000000000E+00
(PID.TID 0000.0001) %MON trcstat_ptracer44_max        =   8.7054553376125885E-04
(PID.TID 0000.0001) %MON trcstat_ptracer44_min        =   1.4937586805555562E-20
(PID.TID 0000.0001) %MON trcstat_ptracer44_mean       =   2.5957705673263587E-05
(PID.TID 0000.0001) %MON trcstat_ptracer44_sd         =   1.3608945110158362E-04
(PID.TID 0000.0001) %MON trcstat_ptracer44_del2       =   0.0000000000000000E+00
(PID.TID 0000.0001) %MON trcstat_ptracer45_max        =   8.7054553376125473E-04
(PID.TID 0000.0001) %MON trcstat_ptracer45_min        =   1.4937586805555562E-20
(PID.TID 0000.0001) %MON trcstat_ptracer45_mean       =   2.5957705673263455E-05
(PID.TID 0000.0001) %MON trcstat_ptracer45_sd         =   1.3608945110158294E-04
(PID.TID 0000.0001) %MON trcstat_ptracer45_del2       =   0.0000000000000000E+00
(PID.TID 0000.0001) %MON trcstat_ptracer46_max        =   8.9871143683490674E-04
(PID.TID 0000.0001) %MON trcstat_ptracer46_min        =   1.4938210089777281E-20
(PID.TID 0000.0001) %MON trcstat_ptracer46_mean       =   2.6777909309230568E-05
(PID.TID 0000.0001) %MON trcstat_ptracer46_sd         =   1.4043446017899698E-04
(PID.TID 0000.0001) %MON trcstat_ptracer46_del2       =   0.0000000000000000E+00
(PID.TID 0000.0001) %MON trcstat_ptracer47_max        =   8.7054553376205682E-04
(PID.TID 0000.0001) %MON trcstat_ptracer47_min        =   1.4937586805555562E-20
(PID.TID 0000.0001) %MON trcstat_ptracer47_mean       =   2.5957705673286728E-05
(PID.TID 0000.0001) %MON trcstat_ptracer47_sd         =   1.3608945110169920E-04
(PID.TID 0000.0001) %MON trcstat_ptracer47_del2       =   0.0000000000000000E+00
(PID.TID 0000.0001) %MON trcstat_ptracer48_max        =   8.9957245522650944E-04
(PID.TID 0000.0001) %MON trcstat_ptracer48_min        =   1.4938210089777281E-20
(PID.TID 0000.0001) %MON trcstat_ptracer48_mean       =   2.6761849509759379E-05
(PID.TID 0000.0001) %MON trcstat_ptracer48_sd         =   1.4049118228250061E-04
(PID.TID 0000.0001) %MON trcstat_ptracer48_del2       =   0.0000000000000000E+00
(PID.TID 0000.0001) %MON trcstat_ptracer49_max        =   9.0016681831706850E-04
(PID.TID 0000.0001) %MON trcstat_ptracer49_min        =   1.4937586805555562E-20
(PID.TID 0000.0001) %MON trcstat_ptracer49_mean       =   2.6803344926716693E-05
(PID.TID 0000.0001) %MON trcstat_ptracer49_sd         =   1.4060844789360417E-04
(PID.TID 0000.0001) %MON trcstat_ptracer49_del2       =   0.0000000000000000E+00
(PID.TID 0000.0001) %MON trcstat_ptracer50_max        =   8.8609783618581392E-04
(PID.TID 0000.0001) %MON trcstat_ptracer50_min        =   1.4938210089777281E-20
(PID.TID 0000.0001) %MON trcstat_ptracer50_mean       =   2.6436935900585108E-05
(PID.TID 0000.0001) %MON trcstat_ptracer50_sd         =   1.3840952217074358E-04
(PID.TID 0000.0001) %MON trcstat_ptracer50_del2       =   0.0000000000000000E+00
(PID.TID 0000.0001) %MON trcstat_ptracer51_max        =   8.9096465075271208E-04
(PID.TID 0000.0001) %MON trcstat_ptracer51_min        =   1.4937586805555562E-20
(PID.TID 0000.0001) %MON trcstat_ptracer51_mean       =   2.6487927918712936E-05
(PID.TID 0000.0001) %MON trcstat_ptracer51_sd         =   1.3911188258849139E-04
(PID.TID 0000.0001) %MON trcstat_ptracer51_del2       =   0.0000000000000000E+00
(PID.TID 0000.0001) %MON trcstat_ptracer52_max        =   8.7054553376162672E-04
(PID.TID 0000.0001) %MON trcstat_ptracer52_min        =   1.4937586805555562E-20
(PID.TID 0000.0001) %MON trcstat_ptracer52_mean       =   2.5957705673274148E-05
(PID.TID 0000.0001) %MON trcstat_ptracer52_sd         =   1.3608945110163219E-04
(PID.TID 0000.0001) %MON trcstat_ptracer52_del2       =   0.0000000000000000E+00
(PID.TID 0000.0001) %MON trcstat_ptracer53_max        =   8.7049046216173002E-04
(PID.TID 0000.0001) %MON trcstat_ptracer53_min        =   1.4938210089777281E-20
(PID.TID 0000.0001) %MON trcstat_ptracer53_mean       =   2.5957705678927588E-05
(PID.TID 0000.0001) %MON trcstat_ptracer53_sd         =   1.3603751220387939E-04
(PID.TID 0000.0001) %MON trcstat_ptracer53_del2       =   0.0000000000000000E+00
(PID.TID 0000.0001) %MON trcstat_ptracer54_max        =   8.7054553376153261E-04
(PID.TID 0000.0001) %MON trcstat_ptracer54_min        =   1.4937586805555562E-20
(PID.TID 0000.0001) %MON trcstat_ptracer54_mean       =   2.5957705673271373E-05
(PID.TID 0000.0001) %MON trcstat_ptracer54_sd         =   1.3608945110161750E-04
(PID.TID 0000.0001) %MON trcstat_ptracer54_del2       =   0.0000000000000000E+00
(PID.TID 0000.0001) %MON trcstat_ptracer55_max        =   8.7054553376208869E-04
(PID.TID 0000.0001) %MON trcstat_ptracer55_min        =   1.4937586805555562E-20
(PID.TID 0000.0001) %MON trcstat_ptracer55_mean       =   2.5957705673287673E-05
(PID.TID 0000.0001) %MON trcstat_ptracer55_sd         =   1.3608945110170421E-04
(PID.TID 0000.0001) %MON trcstat_ptracer55_del2       =   0.0000000000000000E+00
(PID.TID 0000.0001) %MON trcstat_ptracer56_max        =   8.7054553376178100E-04
(PID.TID 0000.0001) %MON trcstat_ptracer56_min        =   1.4937586805555562E-20
(PID.TID 0000.0001) %MON trcstat_ptracer56_mean       =   2.5957705673278664E-05
(PID.TID 0000.0001) %MON trcstat_ptracer56_sd         =   1.3608945110165624E-04
(PID.TID 0000.0001) %MON trcstat_ptracer56_del2       =   0.0000000000000000E+00
(PID.TID 0000.0001) %MON trcstat_ptracer57_max        =   8.7049046216209898E-04
(PID.TID 0000.0001) %MON trcstat_ptracer57_min        =   1.4938210089777281E-20
(PID.TID 0000.0001) %MON trcstat_ptracer57_mean       =   2.5958441148748449E-05
(PID.TID 0000.0001) %MON trcstat_ptracer57_sd         =   1.3603739975084642E-04
(PID.TID 0000.0001) %MON trcstat_ptracer57_del2       =   0.0000000000000000E+00
(PID.TID 0000.0001) %MON trcstat_ptracer58_max        =   8.7054553376143037E-04
(PID.TID 0000.0001) %MON trcstat_ptracer58_min        =   1.4937586805555562E-20
(PID.TID 0000.0001) %MON trcstat_ptracer58_mean       =   2.5958879550369665E-05
(PID.TID 0000.0001) %MON trcstat_ptracer58_sd         =   1.3608928599559186E-04
(PID.TID 0000.0001) %MON trcstat_ptracer58_del2       =   0.0000000000000000E+00
(PID.TID 0000.0001) %MON trcstat_ptracer59_max        =   8.7049046195963973E-04
(PID.TID 0000.0001) %MON trcstat_ptracer59_min        =   1.4938210089777281E-20
(PID.TID 0000.0001) %MON trcstat_ptracer59_mean       =   2.5959212142744845E-05
(PID.TID 0000.0001) %MON trcstat_ptracer59_sd         =   1.3603729304399568E-04
(PID.TID 0000.0001) %MON trcstat_ptracer59_del2       =   0.0000000000000000E+00
(PID.TID 0000.0001) %MON trcstat_ptracer60_max        =   8.7054553376208197E-04
(PID.TID 0000.0001) %MON trcstat_ptracer60_min        =   1.4937586805555562E-20
(PID.TID 0000.0001) %MON trcstat_ptracer60_mean       =   2.5986008441915266E-05
(PID.TID 0000.0001) %MON trcstat_ptracer60_sd         =   1.3611101185679374E-04
(PID.TID 0000.0001) %MON trcstat_ptracer60_del2       =   0.0000000000000000E+00
(PID.TID 0000.0001) %MON trcstat_ptracer61_max        =   8.7049046195945053E-04
(PID.TID 0000.0001) %MON trcstat_ptracer61_min        =   1.4938210089777281E-20
(PID.TID 0000.0001) %MON trcstat_ptracer61_mean       =   2.5957705710395238E-05
(PID.TID 0000.0001) %MON trcstat_ptracer61_sd         =   1.3603751216636920E-04
(PID.TID 0000.0001) %MON trcstat_ptracer61_del2       =   0.0000000000000000E+00
(PID.TID 0000.0001) %MON trcstat_ptracer62_max        =   8.8243567383098850E-04
(PID.TID 0000.0001) %MON trcstat_ptracer62_min        =   1.4937586805555562E-20
(PID.TID 0000.0001) %MON trcstat_ptracer62_mean       =   2.6236386907124504E-05
(PID.TID 0000.0001) %MON trcstat_ptracer62_sd         =   1.3776347807224523E-04
(PID.TID 0000.0001) %MON trcstat_ptracer62_del2       =   0.0000000000000000E+00
(PID.TID 0000.0001) %MON trcstat_ptracer63_max        =   8.9991119134683669E-04
(PID.TID 0000.0001) %MON trcstat_ptracer63_min        =   1.4938210089777281E-20
(PID.TID 0000.0001) %MON trcstat_ptracer63_mean       =   2.6801582315229256E-05
(PID.TID 0000.0001) %MON trcstat_ptracer63_sd         =   1.4063103764994228E-04
(PID.TID 0000.0001) %MON trcstat_ptracer63_del2       =   0.0000000000000000E+00
(PID.TID 0000.0001) %MON trcstat_ptracer64_max        =   8.7049046195975758E-04
(PID.TID 0000.0001) %MON trcstat_ptracer64_min        =   1.4938210089777281E-20
(PID.TID 0000.0001) %MON trcstat_ptracer64_mean       =   2.5957705673284508E-05
(PID.TID 0000.0001) %MON trcstat_ptracer64_sd         =   1.3603751217349926E-04
(PID.TID 0000.0001) %MON trcstat_ptracer64_del2       =   0.0000000000000000E+00
(PID.TID 0000.0001) %MON trcstat_ptracer65_max        =   8.7049046195970337E-04
(PID.TID 0000.0001) %MON trcstat_ptracer65_min        =   1.4938210089777281E-20
(PID.TID 0000.0001) %MON trcstat_ptracer65_mean       =   2.5958115001092431E-05
(PID.TID 0000.0001) %MON trcstat_ptracer65_sd         =   1.3603744552455547E-04
(PID.TID 0000.0001) %MON trcstat_ptracer65_del2       =   0.0000000000000000E+00
(PID.TID 0000.0001) %MON trcstat_ptracer66_max        =   8.7049046195960915E-04
(PID.TID 0000.0001) %MON trcstat_ptracer66_min        =   1.4938210089777281E-20
(PID.TID 0000.0001) %MON trcstat_ptracer66_mean       =   2.5957705673280111E-05
(PID.TID 0000.0001) %MON trcstat_ptracer66_sd         =   1.3603751217347614E-04
(PID.TID 0000.0001) %MON trcstat_ptracer66_del2       =   0.0000000000000000E+00
(PID.TID 0000.0001) %MON trcstat_ptracer67_max        =   8.8789305976012421E-04
(PID.TID 0000.0001) %MON trcstat_ptracer67_min        =   1.4937586805555562E-20
(PID.TID 0000.0001) %MON trcstat_ptracer67_mean       =   2.6496100142962643E-05
(PID.TID 0000.0001) %MON trcstat_ptracer67_sd         =   1.3883550256464113E-04
(PID.TID 0000.0001) %MON trcstat_ptracer67_del2       =   0.0000000000000000E+00
(PID.TID 0000.0001) %MON trcstat_ptracer68_max        =   8.7054553376218801E-04
(PID.TID 0000.0001) %MON trcstat_ptracer68_min        =   1.4937586805555562E-20
(PID.TID 0000.0001) %MON trcstat_ptracer68_mean       =   2.5957705673290546E-05
(PID.TID 0000.0001) %MON trcstat_ptracer68_sd         =   1.3608945110171964E-04
(PID.TID 0000.0001) %MON trcstat_ptracer68_del2       =   0.0000000000000000E+00
(PID.TID 0000.0001) %MON trcstat_ptracer69_max        =   8.7049046216206743E-04
(PID.TID 0000.0001) %MON trcstat_ptracer69_min        =   1.4938210089777281E-20
(PID.TID 0000.0001) %MON trcstat_ptracer69_mean       =   2.5957916563643768E-05
(PID.TID 0000.0001) %MON trcstat_ptracer69_sd         =   1.3603747726955031E-04
(PID.TID 0000.0001) %MON trcstat_ptracer69_del2       =   0.0000000000000000E+00
(PID.TID 0000.0001) %MON trcstat_ptracer70_max        =   8.7049046216191044E-04
(PID.TID 0000.0001) %MON trcstat_ptracer70_min        =   1.4938210089777281E-20
(PID.TID 0000.0001) %MON trcstat_ptracer70_mean       =   2.5959445117105853E-05
(PID.TID 0000.0001) %MON trcstat_ptracer70_sd         =   1.3603726463418475E-04
(PID.TID 0000.0001) %MON trcstat_ptracer70_del2       =   0.0000000000000000E+00
(PID.TID 0000.0001) %MON trcstat_ptracer71_max        =   8.7049046195944880E-04
(PID.TID 0000.0001) %MON trcstat_ptracer71_min        =   1.4938210089777281E-20
(PID.TID 0000.0001) %MON trcstat_ptracer71_mean       =   2.5957705673275347E-05
(PID.TID 0000.0001) %MON trcstat_ptracer71_sd         =   1.3603751217345120E-04
(PID.TID 0000.0001) %MON trcstat_ptracer71_del2       =   0.0000000000000000E+00
(PID.TID 0000.0001) %MON trcstat_ptracer72_max        =   9.0063580087996955E-04
(PID.TID 0000.0001) %MON trcstat_ptracer72_min        =   1.4938210089777281E-20
(PID.TID 0000.0001) %MON trcstat_ptracer72_mean       =   2.6856886404470601E-05
(PID.TID 0000.0001) %MON trcstat_ptracer72_sd         =   1.4079914216018674E-04
(PID.TID 0000.0001) %MON trcstat_ptracer72_del2       =   0.0000000000000000E+00
(PID.TID 0000.0001) %MON trcstat_ptracer73_max        =   8.7049046216207133E-04
(PID.TID 0000.0001) %MON trcstat_ptracer73_min        =   1.4938210089777281E-20
(PID.TID 0000.0001) %MON trcstat_ptracer73_mean       =   2.5957705678937654E-05
(PID.TID 0000.0001) %MON trcstat_ptracer73_sd         =   1.3603751220393252E-04
(PID.TID 0000.0001) %MON trcstat_ptracer73_del2       =   0.0000000000000000E+00
(PID.TID 0000.0001) %MON trcstat_ptracer74_max        =   8.9978718289463833E-04
(PID.TID 0000.0001) %MON trcstat_ptracer74_min        =   1.4938210089777281E-20
(PID.TID 0000.0001) %MON trcstat_ptracer74_mean       =   2.6738093357267667E-05
(PID.TID 0000.0001) %MON trcstat_ptracer74_sd         =   1.4044875587715280E-04
(PID.TID 0000.0001) %MON trcstat_ptracer74_del2       =   0.0000000000000000E+00
(PID.TID 0000.0001) %MON trcstat_ptracer75_max        =   8.8157985974325896E-04
(PID.TID 0000.0001) %MON trcstat_ptracer75_min        =   1.4938210089777281E-20
(PID.TID 0000.0001) %MON trcstat_ptracer75_mean       =   2.6355387013964141E-05
(PID.TID 0000.0001) %MON trcstat_ptracer75_sd         =   1.3787249044254282E-04
(PID.TID 0000.0001) %MON trcstat_ptracer75_del2       =   0.0000000000000000E+00
(PID.TID 0000.0001) %MON trcstat_ptracer76_max        =   8.7049046195987836E-04
(PID.TID 0000.0001) %MON trcstat_ptracer76_min        =   1.4938210089777281E-20
(PID.TID 0000.0001) %MON trcstat_ptracer76_mean       =   2.5984134179746162E-05
(PID.TID 0000.0001) %MON trcstat_ptracer76_sd         =   1.3605053514210202E-04
(PID.TID 0000.0001) %MON trcstat_ptracer76_del2       =   0.0000000000000000E+00
(PID.TID 0000.0001) %MON trcstat_ptracer77_max        =   8.7556621811787688E-04
(PID.TID 0000.0001) %MON trcstat_ptracer77_min        =   1.4938210089777281E-20
(PID.TID 0000.0001) %MON trcstat_ptracer77_mean       =   2.6188483717322051E-05
(PID.TID 0000.0001) %MON trcstat_ptracer77_sd         =   1.3700804652646835E-04
(PID.TID 0000.0001) %MON trcstat_ptracer77_del2       =   0.0000000000000000E+00
(PID.TID 0000.0001) %MON trcstat_ptracer78_max        =   8.7049046195966249E-04
(PID.TID 0000.0001) %MON trcstat_ptracer78_min        =   1.4938210089777281E-20
(PID.TID 0000.0001) %MON trcstat_ptracer78_mean       =   2.5957705673281690E-05
(PID.TID 0000.0001) %MON trcstat_ptracer78_sd         =   1.3603751217348444E-04
(PID.TID 0000.0001) %MON trcstat_ptracer78_del2       =   0.0000000000000000E+00
(PID.TID 0000.0001) %MON trcstat_ptracer79_max        =   8.7049046195941985E-04
(PID.TID 0000.0001) %MON trcstat_ptracer79_min        =   1.4938210089777281E-20
(PID.TID 0000.0001) %MON trcstat_ptracer79_mean       =   2.5958154975057582E-05
(PID.TID 0000.0001) %MON trcstat_ptracer79_sd         =   1.3603743918643471E-04
(PID.TID 0000.0001) %MON trcstat_ptracer79_del2       =   0.0000000000000000E+00
(PID.TID 0000.0001) %MON trcstat_ptracer80_max        =   8.8926812880710812E-04
(PID.TID 0000.0001) %MON trcstat_ptracer80_min        =   1.4938210089777281E-20
(PID.TID 0000.0001) %MON trcstat_ptracer80_mean       =   2.6509791118011229E-05
(PID.TID 0000.0001) %MON trcstat_ptracer80_sd         =   1.3884512866598430E-04
(PID.TID 0000.0001) %MON trcstat_ptracer80_del2       =   0.0000000000000000E+00
(PID.TID 0000.0001) %MON trcstat_ptracer81_max        =   8.7054553376140543E-04
(PID.TID 0000.0001) %MON trcstat_ptracer81_min        =   1.4937586805555562E-20
(PID.TID 0000.0001) %MON trcstat_ptracer81_mean       =   2.5957705673267619E-05
(PID.TID 0000.0001) %MON trcstat_ptracer81_sd         =   1.3608945110159769E-04
(PID.TID 0000.0001) %MON trcstat_ptracer81_del2       =   0.0000000000000000E+00
(PID.TID 0000.0001) %MON trcstat_ptracer82_max        =   8.7049046216175203E-04
(PID.TID 0000.0001) %MON trcstat_ptracer82_min        =   1.4938210089777281E-20
(PID.TID 0000.0001) %MON trcstat_ptracer82_mean       =   2.5980543646894546E-05
(PID.TID 0000.0001) %MON trcstat_ptracer82_sd         =   1.3604609531984887E-04
(PID.TID 0000.0001) %MON trcstat_ptracer82_del2       =   0.0000000000000000E+00
(PID.TID 0000.0001) %MON trcstat_ptracer83_max        =   8.7054553376122014E-04
(PID.TID 0000.0001) %MON trcstat_ptracer83_min        =   1.4937586805555562E-20
(PID.TID 0000.0001) %MON trcstat_ptracer83_mean       =   2.5957705673261008E-05
(PID.TID 0000.0001) %MON trcstat_ptracer83_sd         =   1.3608945110157403E-04
(PID.TID 0000.0001) %MON trcstat_ptracer83_del2       =   0.0000000000000000E+00
(PID.TID 0000.0001) %MON trcstat_ptracer84_max        =   8.7049046195960200E-04
(PID.TID 0000.0001) %MON trcstat_ptracer84_min        =   1.4938210089777281E-20
(PID.TID 0000.0001) %MON trcstat_ptracer84_mean       =   2.5957705673279897E-05
(PID.TID 0000.0001) %MON trcstat_ptracer84_sd         =   1.3603751217347500E-04
(PID.TID 0000.0001) %MON trcstat_ptracer84_del2       =   0.0000000000000000E+00
(PID.TID 0000.0001) %MON trcstat_ptracer85_max        =   8.7845710759852972E-04
(PID.TID 0000.0001) %MON trcstat_ptracer85_min        =   1.4938210089777281E-20
(PID.TID 0000.0001) %MON trcstat_ptracer85_mean       =   2.6286943667147363E-05
(PID.TID 0000.0001) %MON trcstat_ptracer85_sd         =   1.3747619494728600E-04
(PID.TID 0000.0001) %MON trcstat_ptracer85_del2       =   0.0000000000000000E+00
(PID.TID 0000.0001) %MON trcstat_ptracer86_max        =   8.9292936550100499E-04
(PID.TID 0000.0001) %MON trcstat_ptracer86_min        =   1.4937586805555562E-20
(PID.TID 0000.0001) %MON trcstat_ptracer86_mean       =   2.6609733941417243E-05
(PID.TID 0000.0001) %MON trcstat_ptracer86_sd         =   1.3960984372192502E-04
(PID.TID 0000.0001) %MON trcstat_ptracer86_del2       =   0.0000000000000000E+00
(PID.TID 0000.0001) %MON trcstat_ptracer87_max        =   8.7054553376140619E-04
(PID.TID 0000.0001) %MON trcstat_ptracer87_min        =   1.4937586805555562E-20
(PID.TID 0000.0001) %MON trcstat_ptracer87_mean       =   2.5957705673268137E-05
(PID.TID 0000.0001) %MON trcstat_ptracer87_sd         =   1.3608945110160804E-04
(PID.TID 0000.0001) %MON trcstat_ptracer87_del2       =   0.0000000000000000E+00
(PID.TID 0000.0001) %MON trcstat_ptracer88_max        =   8.7054553376129213E-04
(PID.TID 0000.0001) %MON trcstat_ptracer88_min        =   1.4937586805555562E-20
(PID.TID 0000.0001) %MON trcstat_ptracer88_mean       =   2.5957723485827941E-05
(PID.TID 0000.0001) %MON trcstat_ptracer88_sd         =   1.3608944928167248E-04
(PID.TID 0000.0001) %MON trcstat_ptracer88_del2       =   0.0000000000000000E+00
(PID.TID 0000.0001) %MON trcstat_ptracer89_max        =   8.7049046216207621E-04
(PID.TID 0000.0001) %MON trcstat_ptracer89_min        =   1.4938210089777281E-20
(PID.TID 0000.0001) %MON trcstat_ptracer89_mean       =   2.5957746259823999E-05
(PID.TID 0000.0001) %MON trcstat_ptracer89_sd         =   1.3603750467764384E-04
(PID.TID 0000.0001) %MON trcstat_ptracer89_del2       =   0.0000000000000000E+00
(PID.TID 0000.0001) %MON trcstat_ptracer90_max        =   8.7054553376137301E-04
(PID.TID 0000.0001) %MON trcstat_ptracer90_min        =   1.4937586805555562E-20
(PID.TID 0000.0001) %MON trcstat_ptracer90_mean       =   2.5957705673265403E-05
(PID.TID 0000.0001) %MON trcstat_ptracer90_sd         =   1.3608945110159856E-04
(PID.TID 0000.0001) %MON trcstat_ptracer90_del2       =   0.0000000000000000E+00
(PID.TID 0000.0001) %MON trcstat_ptracer91_max        =   8.7622261708834403E-04
(PID.TID 0000.0001) %MON trcstat_ptracer91_min        =   1.4938210089777281E-20
(PID.TID 0000.0001) %MON trcstat_ptracer91_mean       =   2.6219031888405698E-05
(PID.TID 0000.0001) %MON trcstat_ptracer91_sd         =   1.3713773479415048E-04
(PID.TID 0000.0001) %MON trcstat_ptracer91_del2       =   0.0000000000000000E+00
(PID.TID 0000.0001) %MON trcstat_ptracer92_max        =   8.7049046216175604E-04
(PID.TID 0000.0001) %MON trcstat_ptracer92_min        =   1.4938210089777281E-20
(PID.TID 0000.0001) %MON trcstat_ptracer92_mean       =   2.5957705678928350E-05
(PID.TID 0000.0001) %MON trcstat_ptracer92_sd         =   1.3603751220388340E-04
(PID.TID 0000.0001) %MON trcstat_ptracer92_del2       =   0.0000000000000000E+00
(PID.TID 0000.0001) %MON trcstat_ptracer93_max        =   8.9874506728197085E-04
(PID.TID 0000.0001) %MON trcstat_ptracer93_min        =   1.4938210089777281E-20
(PID.TID 0000.0001) %MON trcstat_ptracer93_mean       =   2.6786632322910033E-05
(PID.TID 0000.0001) %MON trcstat_ptracer93_sd         =   1.4044816372616202E-04
(PID.TID 0000.0001) %MON trcstat_ptracer93_del2       =   0.0000000000000000E+00
(PID.TID 0000.0001) %MON trcstat_ptracer94_max        =   8.7055554115274454E-04
(PID.TID 0000.0001) %MON trcstat_ptracer94_min        =   1.4938210089777281E-20
(PID.TID 0000.0001) %MON trcstat_ptracer94_mean       =   2.6064828416541386E-05
(PID.TID 0000.0001) %MON trcstat_ptracer94_sd         =   1.3636928873274649E-04
(PID.TID 0000.0001) %MON trcstat_ptracer94_del2       =   0.0000000000000000E+00
(PID.TID 0000.0001) %MON trcstat_ptracer95_max        =   8.8824880159473591E-04
(PID.TID 0000.0001) %MON trcstat_ptracer95_min        =   1.4937586805555562E-20
(PID.TID 0000.0001) %MON trcstat_ptracer95_mean       =   2.6443823146500246E-05
(PID.TID 0000.0001) %MON trcstat_ptracer95_sd         =   1.3884992050296446E-04
(PID.TID 0000.0001) %MON trcstat_ptracer95_del2       =   0.0000000000000000E+00
(PID.TID 0000.0001) %MON trcstat_ptracer96_max        =   1.2382158642473087E-07
(PID.TID 0000.0001) %MON trcstat_ptracer96_min        =   4.1431546047776925E-34
(PID.TID 0000.0001) %MON trcstat_ptracer96_mean       =   1.6374291932426162E-08
(PID.TID 0000.0001) %MON trcstat_ptracer96_sd         =   2.9949770287988535E-08
(PID.TID 0000.0001) %MON trcstat_ptracer96_del2       =   0.0000000000000000E+00
(PID.TID 0000.0001) %MON trcstat_ptracer97_max        =   1.2382366583571311E-07
(PID.TID 0000.0001) %MON trcstat_ptracer97_min        =   4.1431546047784477E-34
(PID.TID 0000.0001) %MON trcstat_ptracer97_mean       =   1.6374351046317887E-08
(PID.TID 0000.0001) %MON trcstat_ptracer97_sd         =   2.9949968444398823E-08
(PID.TID 0000.0001) %MON trcstat_ptracer97_del2       =   0.0000000000000000E+00
(PID.TID 0000.0001) // =======================================================
(PID.TID 0000.0001) // End MONITOR ptracers field statistics
(PID.TID 0000.0001) // =======================================================
 Computing Diagnostic #    140  TRAC01       Counter:       1   Parms: SMR     MR      
 Computing Diagnostic #    152  TRAC02       Counter:       1   Parms: SMR     MR      
 Computing Diagnostic #    164  TRAC03       Counter:       1   Parms: SMR     MR      
 Computing Diagnostic #    176  TRAC04       Counter:       1   Parms: SMR     MR      
 Computing Diagnostic #    188  TRAC05       Counter:       1   Parms: SMR     MR      
 Computing Diagnostic #    200  TRAC06       Counter:       1   Parms: SMR     MR      
 Computing Diagnostic #    212  TRAC07       Counter:       1   Parms: SMR     MR      
 Computing Diagnostic #    224  TRAC08       Counter:       1   Parms: SMR     MR      
 Computing Diagnostic #    236  TRAC09       Counter:       1   Parms: SMR     MR      
 Computing Diagnostic #    248  TRAC10       Counter:       1   Parms: SMR     MR      
 Computing Diagnostic #    260  TRAC11       Counter:       1   Parms: SMR     MR      
 Computing Diagnostic #    272  TRAC12       Counter:       1   Parms: SMR     MR      
 Computing Diagnostic #    284  TRAC13       Counter:       1   Parms: SMR     MR      
 Computing Diagnostic #    296  TRAC14       Counter:       1   Parms: SMR     MR      
 Computing Diagnostic #    308  TRAC15       Counter:       1   Parms: SMR     MR      
 Computing Diagnostic #    320  TRAC16       Counter:       1   Parms: SMR     MR      
 Computing Diagnostic #    332  TRAC17       Counter:       1   Parms: SMR     MR      
 Computing Diagnostic #    344  TRAC18       Counter:       1   Parms: SMR     MR      
 Computing Diagnostic #    356  TRAC19       Counter:       1   Parms: SMR     MR      
 Computing Diagnostic #    368  TRAC20       Counter:       1   Parms: SMR     MR      
 Computing Diagnostic #    380  TRAC21       Counter:       1   Parms: SMR     MR      
 Computing Diagnostic #    392  TRAC22       Counter:       1   Parms: SMR     MR      
 Computing Diagnostic #    404  TRAC23       Counter:       1   Parms: SMR     MR      
 Computing Diagnostic #    416  TRAC24       Counter:       1   Parms: SMR     MR      
 Computing Diagnostic #    428  TRAC25       Counter:       1   Parms: SMR     MR      
 Computing Diagnostic #    440  TRAC26       Counter:       1   Parms: SMR     MR      
 Computing Diagnostic #    452  TRAC27       Counter:       1   Parms: SMR     MR      
 Computing Diagnostic #    464  TRAC28       Counter:       1   Parms: SMR     MR      
 Computing Diagnostic #    476  TRAC29       Counter:       1   Parms: SMR     MR      
 Computing Diagnostic #    488  TRAC30       Counter:       1   Parms: SMR     MR      
 Computing Diagnostic #    500  TRAC31       Counter:       1   Parms: SMR     MR      
 Computing Diagnostic #    512  TRAC32       Counter:       1   Parms: SMR     MR      
 Computing Diagnostic #    524  TRAC33       Counter:       1   Parms: SMR     MR      
 Computing Diagnostic #    536  TRAC34       Counter:       1   Parms: SMR     MR      
 Computing Diagnostic #    548  TRAC35       Counter:       1   Parms: SMR     MR      
 Computing Diagnostic #    560  TRAC36       Counter:       1   Parms: SMR     MR      
 Computing Diagnostic #    572  TRAC37       Counter:       1   Parms: SMR     MR      
 Computing Diagnostic #    584  TRAC38       Counter:       1   Parms: SMR     MR      
 Computing Diagnostic #    596  TRAC39       Counter:       1   Parms: SMR     MR      
 Computing Diagnostic #    608  TRAC40       Counter:       1   Parms: SMR     MR      
 Computing Diagnostic #    620  TRAC41       Counter:       1   Parms: SMR     MR      
 Computing Diagnostic #    632  TRAC42       Counter:       1   Parms: SMR     MR      
 Computing Diagnostic #    644  TRAC43       Counter:       1   Parms: SMR     MR      
 Computing Diagnostic #    656  TRAC44       Counter:       1   Parms: SMR     MR      
 Computing Diagnostic #    668  TRAC45       Counter:       1   Parms: SMR     MR      
 Computing Diagnostic #    680  TRAC46       Counter:       1   Parms: SMR     MR      
 Computing Diagnostic #    692  TRAC47       Counter:       1   Parms: SMR     MR      
 Computing Diagnostic #    704  TRAC48       Counter:       1   Parms: SMR     MR      
 Computing Diagnostic #    716  TRAC49       Counter:       1   Parms: SMR     MR      
 Computing Diagnostic #    728  TRAC50       Counter:       1   Parms: SMR     MR      
 Computing Diagnostic #    740  TRAC51       Counter:       1   Parms: SMR     MR      
 Computing Diagnostic #    752  TRAC52       Counter:       1   Parms: SMR     MR      
 Computing Diagnostic #    764  TRAC53       Counter:       1   Parms: SMR     MR      
 Computing Diagnostic #    776  TRAC54       Counter:       1   Parms: SMR     MR      
 Computing Diagnostic #    788  TRAC55       Counter:       1   Parms: SMR     MR      
 Computing Diagnostic #    800  TRAC56       Counter:       1   Parms: SMR     MR      
 Computing Diagnostic #    812  TRAC57       Counter:       1   Parms: SMR     MR      
 Computing Diagnostic #    824  TRAC58       Counter:       1   Parms: SMR     MR      
 Computing Diagnostic #    836  TRAC59       Counter:       1   Parms: SMR     MR      
 Computing Diagnostic #    848  TRAC60       Counter:       1   Parms: SMR     MR      
 Computing Diagnostic #    860  TRAC61       Counter:       1   Parms: SMR     MR      
 Computing Diagnostic #    872  TRAC62       Counter:       1   Parms: SMR     MR      
 Computing Diagnostic #    884  TRAC63       Counter:       1   Parms: SMR     MR      
 Computing Diagnostic #    896  TRAC64       Counter:       1   Parms: SMR     MR      
 Computing Diagnostic #    908  TRAC65       Counter:       1   Parms: SMR     MR      
 Computing Diagnostic #    920  TRAC66       Counter:       1   Parms: SMR     MR      
 Computing Diagnostic #    932  TRAC67       Counter:       1   Parms: SMR     MR      
 Computing Diagnostic #    944  TRAC68       Counter:       1   Parms: SMR     MR      
 Computing Diagnostic #    956  TRAC69       Counter:       1   Parms: SMR     MR      
 Computing Diagnostic #    968  TRAC70       Counter:       1   Parms: SMR     MR      
 Computing Diagnostic #    980  TRAC71       Counter:       1   Parms: SMR     MR      
 Computing Diagnostic #    992  TRAC72       Counter:       1   Parms: SMR     MR      
 Computing Diagnostic #   1004  TRAC73       Counter:       1   Parms: SMR     MR      
 Computing Diagnostic #   1016  TRAC74       Counter:       1   Parms: SMR     MR      
 Computing Diagnostic #   1028  TRAC75       Counter:       1   Parms: SMR     MR      
 Computing Diagnostic #   1040  TRAC76       Counter:       1   Parms: SMR     MR      
 Computing Diagnostic #   1052  TRAC77       Counter:       1   Parms: SMR     MR      
 Computing Diagnostic #   1064  TRAC78       Counter:       1   Parms: SMR     MR      
 Computing Diagnostic #   1076  TRAC79       Counter:       1   Parms: SMR     MR      
 Computing Diagnostic #   1088  TRAC80       Counter:       1   Parms: SMR     MR      
 Computing Diagnostic #   1100  TRAC81       Counter:       1   Parms: SMR     MR      
 Computing Diagnostic #   1112  TRAC82       Counter:       1   Parms: SMR     MR      
 Computing Diagnostic #   1124  TRAC83       Counter:       1   Parms: SMR     MR      
 Computing Diagnostic #   1136  TRAC84       Counter:       1   Parms: SMR     MR      
 Computing Diagnostic #   1148  TRAC85       Counter:       1   Parms: SMR     MR      
 Computing Diagnostic #   1160  TRAC86       Counter:       1   Parms: SMR     MR      
 Computing Diagnostic #   1172  TRAC87       Counter:       1   Parms: SMR     MR      
 Computing Diagnostic #   1184  TRAC88       Counter:       1   Parms: SMR     MR      
 Computing Diagnostic #   1196  TRAC89       Counter:       1   Parms: SMR     MR      
 Computing Diagnostic #   1208  TRAC90       Counter:       1   Parms: SMR     MR      
 Computing Diagnostic #   1220  TRAC91       Counter:       1   Parms: SMR     MR      
 Computing Diagnostic #   1232  TRAC92       Counter:       1   Parms: SMR     MR      
 Computing Diagnostic #   1244  TRAC93       Counter:       1   Parms: SMR     MR      
 Computing Diagnostic #   1256  TRAC94       Counter:       1   Parms: SMR     MR      
 Computing Diagnostic #   1268  TRAC95       Counter:       1   Parms: SMR     MR      
 Computing Diagnostic #   1280  TRAC96       Counter:       1   Parms: SMR     MR      
 Computing Diagnostic #   1292  TRAC97       Counter:       1   Parms: SMR     MR      
 Computing Diagnostic #   1309  PAR01        Counter:       1   Parms: SM P    MR      
 Computing Diagnostic #   1306  exfPAR       Counter:       1   Parms: SM P    MR      
(PID.TID 0000.0001) // =======================================================
(PID.TID 0000.0001) // Begin MONITOR EXF statistics
(PID.TID 0000.0001) // =======================================================
(PID.TID 0000.0001) %MON exf_tsnumber                 =                     3
(PID.TID 0000.0001) %MON exf_time_sec                 =   1.0800000000000000E+04
(PID.TID 0000.0001) %MON exf_ustress_max              =   0.0000000000000000E+00
(PID.TID 0000.0001) %MON exf_ustress_min              =   0.0000000000000000E+00
(PID.TID 0000.0001) %MON exf_ustress_mean             =   0.0000000000000000E+00
(PID.TID 0000.0001) %MON exf_ustress_sd               =   0.0000000000000000E+00
(PID.TID 0000.0001) %MON exf_ustress_del2             =   0.0000000000000000E+00
(PID.TID 0000.0001) %MON exf_vstress_max              =   0.0000000000000000E+00
(PID.TID 0000.0001) %MON exf_vstress_min              =   0.0000000000000000E+00
(PID.TID 0000.0001) %MON exf_vstress_mean             =   0.0000000000000000E+00
(PID.TID 0000.0001) %MON exf_vstress_sd               =   0.0000000000000000E+00
(PID.TID 0000.0001) %MON exf_vstress_del2             =   0.0000000000000000E+00
(PID.TID 0000.0001) %MON exf_hflux_max                =   0.0000000000000000E+00
(PID.TID 0000.0001) %MON exf_hflux_min                =   0.0000000000000000E+00
(PID.TID 0000.0001) %MON exf_hflux_mean               =   0.0000000000000000E+00
(PID.TID 0000.0001) %MON exf_hflux_sd                 =   0.0000000000000000E+00
(PID.TID 0000.0001) %MON exf_hflux_del2               =   0.0000000000000000E+00
(PID.TID 0000.0001) %MON exf_sflux_max                =   0.0000000000000000E+00
(PID.TID 0000.0001) %MON exf_sflux_min                =   0.0000000000000000E+00
(PID.TID 0000.0001) %MON exf_sflux_mean               =   0.0000000000000000E+00
(PID.TID 0000.0001) %MON exf_sflux_sd                 =   0.0000000000000000E+00
(PID.TID 0000.0001) %MON exf_sflux_del2               =   0.0000000000000000E+00
(PID.TID 0000.0001) %MON exf_uwind_max                =   0.0000000000000000E+00
(PID.TID 0000.0001) %MON exf_uwind_min                =   0.0000000000000000E+00
(PID.TID 0000.0001) %MON exf_uwind_mean               =   0.0000000000000000E+00
(PID.TID 0000.0001) %MON exf_uwind_sd                 =   0.0000000000000000E+00
(PID.TID 0000.0001) %MON exf_uwind_del2               =   0.0000000000000000E+00
(PID.TID 0000.0001) %MON exf_vwind_max                =   0.0000000000000000E+00
(PID.TID 0000.0001) %MON exf_vwind_min                =   0.0000000000000000E+00
(PID.TID 0000.0001) %MON exf_vwind_mean               =   0.0000000000000000E+00
(PID.TID 0000.0001) %MON exf_vwind_sd                 =   0.0000000000000000E+00
(PID.TID 0000.0001) %MON exf_vwind_del2               =   0.0000000000000000E+00
(PID.TID 0000.0001) %MON exf_wspeed_max               =   0.0000000000000000E+00
(PID.TID 0000.0001) %MON exf_wspeed_min               =   0.0000000000000000E+00
(PID.TID 0000.0001) %MON exf_wspeed_mean              =   0.0000000000000000E+00
(PID.TID 0000.0001) %MON exf_wspeed_sd                =   0.0000000000000000E+00
(PID.TID 0000.0001) %MON exf_wspeed_del2              =   0.0000000000000000E+00
(PID.TID 0000.0001) %MON exf_evap_max                 =   0.0000000000000000E+00
(PID.TID 0000.0001) %MON exf_evap_min                 =   0.0000000000000000E+00
(PID.TID 0000.0001) %MON exf_evap_mean                =   0.0000000000000000E+00
(PID.TID 0000.0001) %MON exf_evap_sd                  =   0.0000000000000000E+00
(PID.TID 0000.0001) %MON exf_evap_del2                =   0.0000000000000000E+00
(PID.TID 0000.0001) // =======================================================
(PID.TID 0000.0001) // End MONITOR EXF statistics
(PID.TID 0000.0001) // =======================================================
 Local pointing vectors
 no(2) =   0.27363063147685535      -0.12470066308196398       0.95371695074822704     
 ea(2) =   0.41469324265623930       0.90996127087654310        0.0000000000000000     
 up(2) =   0.86784548855935806      -0.39549997488200311      -0.30070579950427312     
 ac           1   3.1319169657328662E-005   3.0400000000000000E-002
 ac           2   2.7742289265459814E-005   3.8500000000000000E-002
 ac           3   3.1690884711848062E-005   3.0400000000000000E-002
 ac           4   3.2247706821172302E-005   3.0400000000000000E-002
 ac           5   2.1997333259340327E-005   2.9200000000000000E-002
 ac           6   2.6233858364543026E-005   3.8500000000000000E-002
 ac           7   3.6477725061019894E-005   2.4500000000000001E-002
 ac           8   4.0255633423935286E-005   2.4500000000000001E-002
 ac           9   2.0814918697430627E-005   2.9200000000000000E-002
 ac          10   2.1790955073337436E-005   2.9200000000000000E-002
 ac          11   1.8311540588081892E-005   3.0400000000000000E-002
 ac          12   3.8007569260090242E-005   2.4500000000000001E-002
 ac          13   3.1702253720277104E-005   3.0400000000000000E-002
 ac          14   3.9321387677946933E-005   2.4500000000000001E-002
 ac          15   1.8038568440724517E-005   3.0400000000000000E-002
 ac          16   3.1608345619555673E-005   3.0400000000000000E-002
 ac          17   3.1373361119852336E-005   3.0400000000000000E-002
 ac          18   2.1562469651703583E-005   2.9200000000000000E-002
 ac          19   3.1575680051108242E-005   3.0400000000000000E-002
 ac          20   3.0937461747231175E-005   3.0400000000000000E-002
 ac          21   3.1624814014758954E-005   3.0400000000000000E-002
 ac          22   3.2224500733178502E-005   3.0400000000000000E-002
 ac          23   2.7094463443952937E-005   3.8500000000000000E-002
 ac          24   3.1211362652022470E-005   3.0400000000000000E-002
 ac          25   3.8121478772320295E-005   2.4500000000000001E-002
 ac          26   4.0243767129796102E-005   2.4500000000000001E-002
 ac          27   3.8042976406604230E-005   2.4500000000000001E-002
 ac          28   2.6190385256349522E-005   3.8500000000000000E-002
 ac          29   3.2316551960984182E-005   3.0400000000000000E-002
 ac          30   2.1298613939753953E-005   2.9200000000000000E-002
 ac          31   3.2223449473174405E-005   3.0400000000000000E-002
 ac          32   1.7933086744020762E-005   3.0400000000000000E-002
 ac          33   3.1553243406859570E-005   3.0400000000000000E-002
 ac          34   2.1677599784102822E-005   2.9200000000000000E-002
 ac          35   2.1600984063227491E-005   2.9200000000000000E-002
 ac          36   3.1564012760627236E-005   3.0400000000000000E-002
 ac          37   1.7919726259322059E-005   3.0400000000000000E-002
 ac          38   1.8078853726838086E-005   3.0400000000000000E-002
 ac          39   2.1541995057864976E-005   2.9200000000000000E-002
 ac          40   3.1494694541112211E-005   3.0400000000000000E-002
 ac          41   2.1468402032905846E-005   2.9200000000000000E-002
 ac          42   3.1714102547188238E-005   3.0400000000000000E-002
 ac          43   1.7778252298474787E-005   3.0400000000000000E-002
 ac          44   3.1368428882504010E-005   3.0400000000000000E-002
 ac          45   3.9580998154928154E-005   2.4500000000000001E-002
 ac          46   3.1803421327756104E-005   3.0400000000000000E-002
 ac          47   3.1354583234543802E-005   3.0400000000000000E-002
 ac          48   3.1608151948866656E-005   3.0400000000000000E-002
 ac          49   3.1048060447443198E-005   3.0400000000000000E-002
 ac          50   1.8249445647364955E-005   3.0400000000000000E-002
 ac          51   1.7371985920925277E-005   3.0400000000000000E-002
 ac          52   3.1406429380286545E-005   3.0400000000000000E-002
 ac          53   3.1693883770654853E-005   3.0400000000000000E-002
 ac          54   3.0989096970678738E-005   3.0400000000000000E-002
 ac          55   3.2022487122190118E-005   3.0400000000000000E-002
 ac          56   3.1344228792327304E-005   3.0400000000000000E-002
 ac          57   3.2388199421488087E-005   3.0400000000000000E-002
 ac          58   3.1675162766755814E-005   3.0400000000000000E-002
 ac          59   3.1065366052938525E-005   3.0400000000000000E-002
 ac          60   3.1454566435354873E-005   3.0400000000000000E-002
 ac          61   3.1593244478634467E-005   3.0400000000000000E-002
 ac          62   3.1719206434546302E-005   3.0400000000000000E-002
 ac          63   3.1995743532167281E-005   3.0400000000000000E-002
 ac          64   2.1574643784326891E-005   2.9200000000000000E-002
 ac          65   3.1717112291673682E-005   3.0400000000000000E-002
 ac          66   2.6720115059466148E-005   3.8500000000000000E-002
 ac          67   3.1703732990349099E-005   3.0400000000000000E-002
 ac          68   3.1686911122266035E-005   3.0400000000000000E-002
 ac          69   1.8599991301146671E-005   3.0400000000000000E-002
 ac          70   2.7406178250141293E-005   3.8500000000000000E-002
 ac          71   3.6488739445520806E-005   2.4500000000000001E-002
 ac          72   3.1379646818263235E-005   3.0400000000000000E-002
 ac          73   2.6730299891414690E-005   3.8500000000000000E-002
 ac          74   3.1460417390187673E-005   3.0400000000000000E-002
 ac          75   3.1611175986312606E-005   3.0400000000000000E-002
 ac          76   3.1899245902838430E-005   3.0400000000000000E-002
 ac          77   3.1035677067208516E-005   3.0400000000000000E-002
 ac          78   4.0548519332932790E-005   2.4500000000000001E-002
 abs           1           1   9.7530822171701670E-003   7.8848884353958822E-003   3.8010554818086097E-003   6.3000000000000000E-003   3.3817368445590995E-003   6.8300269496111360E-005   3.0451031149563031E-006
 abs           1           2   7.5750854527507610E-003   6.0680972103737876E-003   2.9009883818984041E-003   5.1000000000000004E-003   2.3830696769237417E-003   8.9557800436841235E-005   2.4579753901771467E-006
 abs           1           3   1.0077875367992250E-002   4.7603500855692175E-003   2.2509534199133285E-003   8.3000000000000001E-003   1.6793208182979830E-003   9.6604091489915008E-005   1.9504582043510962E-006
 abs           1           4   1.3163386739514659E-002   3.8632750347639068E-003   1.8009676939952162E-003   1.1900000000000001E-002   1.1833973794712722E-003   7.8397149264323058E-005   1.5922107790621195E-006
 abs           1           5   2.2391864923593633E-002   3.1668568286995448E-003   1.4509742068977930E-003   2.1499999999999998E-002   8.3392603871774225E-004   5.6655164935274611E-005   1.2837199406188338E-006
 abs           1           6   4.1322634598939610E-002   2.5674991791356616E-003   1.1509576655318017E-003   4.0700000000000000E-002   5.8765774719069972E-004   3.3941914742518825E-005   1.0349370063903776E-006
 abs           1           7   5.5437264520556279E-002   2.1731634253623600E-003   9.5095827991106634E-004   5.5000000000000000E-002   4.1411541527621674E-004   2.2306228698901315E-005   8.4287658116600954E-007
 abs           1           8   8.5206395324232895E-002   1.8713638158683759E-003   8.0093891113960946E-004   8.4900000000000003E-002   2.9182220091406898E-004   1.3884492156874929E-005   6.8863116194436669E-007
 abs           1           9  0.19971900460860523        1.6672555749426448E-003   7.0091821768624547E-004  0.19950000000000001        2.0564362929964585E-004   1.2806690928084971E-005   5.5428837746100023E-007
 abs           1          10  0.28515946797423375        1.4613275279288186E-003   6.0089285247551564E-004  0.28499999999999998        1.4491461629399064E-004   1.4106543789856804E-005   4.4681414987430728E-007
 abs           1          11  0.35131748317677020        1.1548143204295133E-003   4.5086213677898273E-004  0.35120000000000001        1.0211960412853262E-004   1.5001344689419188E-005   3.6222795223663212E-007
 abs           1          12  0.45601527859295726        9.5173105806502201E-004   3.5085394780465104E-004  0.45590000000000003        7.1962468756166912E-005   4.3019574943449691E-005   2.9654925760031972E-007
 abs           1          13  0.64335665290462352        9.4245388833165476E-004   3.5082265994270317E-004  0.64329999999999998        5.0711094639225855E-005   5.7019832357299409E-006   2.3982674859623174E-007
 abs           2           1   9.7559379232629081E-003   7.9059465829795696E-003   3.8011591176463420E-003   6.3000000000000000E-003   3.3824054058577144E-003   6.9509380151387394E-005   4.0231372538076688E-006
 abs           2           2   7.5779124322097298E-003   6.0879055688018340E-003   2.9010858165181047E-003   5.1000000000000004E-003   2.3835408041081225E-003   9.1124193782356918E-005   3.2474343192499811E-006
 abs           2           3   1.0080493807524968E-002   4.7783251473580380E-003   2.2510411283771289E-003   8.3000000000000001E-003   1.6796528160135588E-003   9.8264080067793602E-005   2.5769114436153698E-006
 abs           2           4   1.3165502093362112E-002   3.8815892298532935E-003   1.8010572276884618E-003   1.1900000000000001E-002   1.1836313343072523E-003   7.9767157876397608E-005   2.1036011784615265E-006
 abs           2           5   2.2393458175507780E-002   3.1846203039947577E-003   1.4510605497891789E-003   2.1499999999999998E-002   8.3409090390418946E-004   5.7671243153456182E-005   1.6960284501346056E-006
 abs           2           6   4.1323726647556985E-002   2.5845983551653321E-003   1.1510401322312070E-003   4.0700000000000000E-002   5.8777392572399831E-004   3.4585381066986263E-005   1.3673407659999920E-006
 abs           2           7   5.5438074126288692E-002   2.1898187701943949E-003   9.5103785690880472E-004   5.5000000000000000E-002   4.1419728490491324E-004   2.2763247509933029E-005   1.1135938738480705E-006
 abs           2           8   8.5206942418808648E-002   1.8875407361211868E-003   8.0101581926617115E-004   8.4900000000000003E-002   2.9187989346632110E-004   1.4152717832631729E-005   9.0980750968461023E-007
 abs           2           9  0.19971945483502523        1.6829015208639682E-003   7.0099237464894208E-004  0.19950000000000001        2.0568428455408340E-004   1.3038234310901920E-005   7.3231616025191885E-007
 abs           2          10  0.28515989442108636        1.4764626969132749E-003   6.0096441157725996E-004  0.28499999999999998        1.4494326556757729E-004   1.4360832438087635E-005   5.9032308070576591E-007
 abs           2          11  0.35131788442957118        1.1692840864786678E-003   4.5093021784342992E-004  0.35120000000000001        1.0213979293040820E-004   1.5266067372674560E-005   4.7856926809999718E-007
 abs           2          12  0.45601614710518484        9.6586003185116062E-004   3.5092041853725992E-004  0.45590000000000003        7.1976695564394334E-005   4.3778613900905046E-005   3.9179571948845927E-007
 abs           2          13  0.64335683878254313        9.5611164943135846E-004   3.5088699845653220E-004  0.64329999999999998        5.0721120101538426E-005   5.8008075140732272E-006   3.1685492750576741E-007
 abs           3           1   9.7582728417726135E-003   7.9198974046685178E-003   3.8012154185100211E-003   6.3000000000000000E-003   3.3831081669280878E-003   7.0826447986976063E-005   4.3382268575485188E-006
 abs           3           2   7.5804075466655210E-003   6.1008904895133364E-003   2.9011382970365002E-003   5.1000000000000004E-003   2.3840360314643324E-003   9.2869743848853560E-005   3.5017713523349151E-006
 abs           3           3   1.0082789514541841E-002   4.7904531224720430E-003   2.2510896302268711E-003   8.3000000000000001E-003   1.6800017968331830E-003   1.0000898416591388E-004   2.7787335427434955E-006
 abs           3           4   1.3167344254545965E-002   3.8937644959440364E-003   1.8011061276336641E-003   1.1900000000000001E-002   1.1838772569343816E-003   8.1198643699138362E-005   2.2683539124436702E-006
 abs           3           5   2.2394985326430222E-002   3.1965826419335344E-003   1.4511083001373221E-003   2.1499999999999998E-002   8.3426420265051988E-004   5.8892263437798456E-005   1.8288603419077089E-006
 abs           3           6   4.1324830990219913E-002   2.5961146367981230E-003   1.1510858306088619E-003   4.0700000000000000E-002   5.8789604728650053E-004   3.5460512890329927E-005   1.4744300430883854E-006
 abs           3           7   5.5439086951084661E-002   2.2010860971055902E-003   9.5108222230895110E-004   5.5000000000000000E-002   4.1428334251550640E-004   2.3602798716757120E-005   1.2008098523998679E-006
 abs           3           8   8.5207483079657823E-002   1.8983372429392823E-003   8.0105826596888765E-004   8.4900000000000003E-002   2.9194053723953576E-004   1.4561479351150702E-005   9.8106306713188725E-007
 abs           3           9  0.19971981671771244        1.6931752268085959E-003   7.0103279021540958E-004  0.19950000000000001        2.0572701949878337E-004   1.3300027507887984E-005   7.8967070576945253E-007
 abs           3          10  0.28516026596150834        1.4863854796087282E-003   6.0100338202676040E-004  0.28499999999999998        1.4497338037412213E-004   1.4656024317549048E-005   6.3655681667950489E-007
 abs           3          11  0.35131824396730643        1.1788276675221998E-003   4.5096751928883229E-004  0.35120000000000001        1.0216101447590455E-004   1.5566902315423469E-005   5.1605051508093483E-007
 abs           3          12  0.45601698825295911        9.7497331563375521E-004   3.5095618805677272E-004  0.45590000000000003        7.1991650134751030E-005   4.4574121908135093E-005   4.2248091619263345E-007
 abs           3          13  0.64335699396582102        9.6473348999714026E-004   3.5092100010189643E-004  0.64329999999999998        5.0731658409155653E-005   5.9206366037842276E-006   3.4167080806182777E-007
 abs           4           1   9.7609015981838104E-003   7.9347784169561519E-003   3.8012757400651301E-003   6.3000000000000000E-003   3.3839053027460431E-003   7.2314833911701817E-005   4.6814615260650161E-006
 abs           4           2   7.5832083322673509E-003   6.1147589110762011E-003   2.9011945770329728E-003   5.1000000000000004E-003   2.3845977635811337E-003   9.4831741898837680E-005   3.7788267873792776E-006
 abs           4           3   1.0085384439792733E-002   4.8034160984513291E-003   2.2511416681191619E-003   8.3000000000000001E-003   1.6803976427655052E-003   1.0198821382752589E-004   2.9985831997017754E-006
 abs           4           4   1.3169431076958680E-002   3.9067912361581978E-003   1.8011586411195322E-003   1.1900000000000001E-002   1.1841562048482530E-003   8.2827049090260826E-005   2.4478230201647146E-006
 abs           4           5   2.2396683846203348E-002   3.2093978134819703E-003   1.4511596244265270E-003   2.1499999999999998E-002   8.3446077392307675E-004   6.0249514970263168E-005   1.9735573100078012E-006
 abs           4           6   4.1326043390902421E-002   2.6084890135122120E-003   1.1511350455332163E-003   4.0700000000000000E-002   5.8803456872105221E-004   3.6417737218259625E-005   1.5910849631070644E-006
 abs           4           7   5.5440163492568154E-002   2.2132303926430531E-003   9.5113009779359604E-004   5.5000000000000000E-002   4.1438095692060574E-004   2.4486719336247983E-005   1.2958163112996959E-006
 abs           4           8   8.5208069447164012E-002   1.9100144763809933E-003   8.0110418409625687E-004   8.4900000000000003E-002   2.9200932494819425E-004   1.5001438759600996E-005   1.0586834562212391E-006
 abs           4           9  0.19972022206944762        1.7043241385157741E-003   7.0107662167201239E-004  0.19950000000000001        2.0577549337779402E-004   1.3594427680909859E-005   8.5214838889484112E-007
 abs           4          10  0.28516068077147222        1.4971656547498205E-003   6.0104567879055667E-004  0.28499999999999998        1.4500753933932342E-004   1.4986311797886257E-005   6.8692033503372304E-007
 abs           4          11  0.35131864609077007        1.1892063413453495E-003   4.5100802832237730E-004  0.35120000000000001        1.0218508589183901E-004   1.5904125141144330E-005   5.5687973708747245E-007
 abs           4          12  0.45601794395060491        9.8491771806042717E-004   3.5099514254788430E-004  0.45590000000000003        7.2008612974862714E-005   4.5479430592528765E-005   4.5590703750567799E-007
 abs           4          13  0.64335716553610833        9.7416414014892861E-004   3.5095809944394208E-004  0.64329999999999998        5.0743611920550152E-005   6.0532208453842201E-006   3.6870334241231008E-007
 abs           5           1   9.7639076451105384E-003   7.9508299386187014E-003   3.8013417430445401E-003   6.3000000000000000E-003   3.3848353595270233E-003   7.4007782901616337E-005   5.0645026818994146E-006
 abs           5           2   7.5864269894215736E-003   6.1297237934682816E-003   2.9012561555737076E-003   5.1000000000000004E-003   2.3852531635174526E-003   9.7085812301411678E-005   4.0880136027096574E-006
 abs           5           3   1.0088400901590182E-002   4.8174104475308130E-003   2.2511986529825364E-003   8.3000000000000001E-003   1.6808594952946315E-003   1.0429747647315724E-004   3.2439298223930889E-006
 abs           5           4   1.3171812186095970E-002   3.9208757473893048E-003   1.8012162382218019E-003   1.1900000000000001E-002   1.1844816668247346E-003   8.4682413293769339E-005   2.6481059774637464E-006
 abs           5           5   2.2398595237857921E-002   3.2232612961792103E-003   1.4512159503462395E-003   2.1499999999999998E-002   8.3469012310155978E-004   6.1770079312030467E-005   2.1350354443301452E-006
 abs           5           6   4.1327367366930025E-002   2.6218714121289013E-003   1.1511889817086445E-003   4.0700000000000000E-002   5.8819618835551600E-004   3.7449909689149042E-005   1.7212688853514351E-006
 abs           5           7   5.5441306966334071E-002   2.2263573180973479E-003   9.5118247991968013E-004   5.5000000000000000E-002   4.1449484835207702E-004   2.5410276880174660E-005   1.4018411018198707E-006
 abs           5           8   8.5208707053970850E-002   1.9226444245851995E-003   8.0115440378325921E-004   8.4900000000000003E-002   2.9208958288347308E-004   1.5472165252122293E-005   1.1453058352530703E-006
 abs           5           9  0.19972067661884324        1.7164026267868007E-003   7.0112461098585340E-004  0.19950000000000001        2.0583205018889046E-004   1.3922696760912667E-005   9.2187189340456657E-007
 abs           5          10  0.28516114758750200        1.5088440651487742E-003   6.0109196674594263E-004  0.28499999999999998        1.4504739425049554E-004   1.5357068511634509E-005   7.4312473992576380E-007
 abs           5          11  0.35131910037772546        1.2004395441287730E-003   4.5105229061848692E-004  0.35120000000000001        1.0221317117305879E-004   1.6284762442514094E-005   6.0244410987300220E-007
 abs           5          12  0.45601904518846692        9.9571763070371616E-004   3.5103785692043251E-004  0.45590000000000003        7.2028404338034702E-005   4.6523574390539264E-005   4.9320973830262270E-007
 abs           5          13  0.64335736372258634        9.8442641177006341E-004   3.5099885174647710E-004  0.64329999999999998        5.0757558658456750E-005   6.2072929651035147E-006   3.9887096285547672E-007
 abs           6           1   9.7651768778869146E-003   7.9655180818842247E-003   3.8014102848372734E-003   6.3000000000000000E-003   3.3850448258595546E-003   7.4469895533123495E-005   5.6621564942366277E-006
 abs           6           2   7.5876486224963711E-003   6.1434532879961964E-003   2.9013203767213882E-003   5.1000000000000004E-003   2.3854007719471848E-003   9.7677417039132320E-005   4.5704335100537477E-006
 abs           6           3   1.0089407819943049E-002   4.8298692213792271E-003   2.2512564250018827E-003   8.3000000000000001E-003   1.6809635131970057E-003   1.0481756598502731E-004   3.6267407610143105E-006
 abs           6           4   1.3172641738763195E-002   3.9334738564962436E-003   1.8012748716731005E-003   1.1900000000000001E-002   1.1845549670016552E-003   8.5126167058670701E-005   2.9606047028688254E-006
 abs           6           5   2.2399364426995635E-002   3.2354312304460255E-003   1.4512723382626208E-003   2.1499999999999998E-002   8.3474177686321000E-004   6.2235662590739413E-005   2.3869875416879904E-006
 abs           6           6   4.1328010861144689E-002   2.6334623525404617E-003   1.1512426042630194E-003   4.0700000000000000E-002   5.8823258814614003E-004   3.7853879941684986E-005   1.9243930568647363E-006
 abs           6           7   5.5441953664166703E-002   2.2375301704168305E-003   9.5123401641508492E-004   5.5000000000000000E-002   4.1452049885099809E-004   2.5865895201122104E-005   1.5672701145811843E-006
 abs           6           8   8.5209060224479605E-002   1.9333321408378952E-003   8.0120381420613600E-004   8.4900000000000003E-002   2.9210765848455806E-004   1.5672104461058878E-005   1.2804615339907668E-006
 abs           6           9  0.19972089860809519        1.7265715390221319E-003   7.0117177008235455E-004  0.19950000000000001        2.0584478784968954E-004   1.4023159733315031E-005   1.0306605121862097E-006
 abs           6          10  0.28516135924771596        1.5186386368472369E-003   6.0113738556516450E-004  0.28499999999999998        1.4505637032835155E-004   1.5472057692890216E-005   8.3081969474256406E-007
 abs           6          11  0.35131928082645891        1.2097833088867457E-003   4.5109551807173904E-004  0.35120000000000001        1.0221949650821630E-004   1.6387792380792112E-005   6.7353756990265760E-007
 abs           6          12  0.45601938769924089        1.0046652921051672E-003   3.5107945580255712E-004  0.45590000000000003        7.2032861726383681E-005   4.6803424888622243E-005   5.5141262590931865E-007
 abs           6          13  0.64335745611967221        9.9296425878995218E-004   3.5103875997817037E-004  0.64329999999999998        5.0760699726937527E-005   6.2494788618344997E-006   4.4594108336961674E-007
 abs           7           1   9.7676179548974902E-003   7.9831407202272456E-003   3.8014891528554040E-003   6.3000000000000000E-003   3.3856585022955079E-003   7.5671614860167122E-005   6.2878377418155112E-006
 abs           7           2   7.5901159183721723E-003   6.1599615785074028E-003   2.9013943362588678E-003   5.1000000000000004E-003   2.3858332224225422E-003   9.9207219079602130E-005   5.0754768700275524E-006
 abs           7           3   1.0091637039291359E-002   4.8450331766754966E-003   2.2513235993212055E-003   8.3000000000000001E-003   1.6812682558963834E-003   1.0634127948191567E-004   4.0275039130583014E-006
 abs           7           4   1.3174494327356269E-002   3.9488043041877871E-003   1.8013430267666856E-003   1.1900000000000001E-002   1.1847697155523353E-003   8.6436853507557853E-005   3.2877582963741235E-006
 abs           7           5   2.2400857794448500E-002   3.2503840501478701E-003   1.4513383538015271E-003   2.1499999999999998E-002   8.3489310760915863E-004   6.3313931712893789E-005   2.6507551264516373E-006
 abs           7           6   4.1329119477404148E-002   2.6478928086908658E-003   1.1513058922164724E-003   4.0700000000000000E-002   5.8833922912041828E-004   3.8643205391092740E-005   2.1370428926431803E-006
 abs           7           7   5.5442903486369516E-002   2.2516531496086551E-003   9.5129543198075911E-004   5.5000000000000000E-002   4.1459564747544796E-004   2.6567381845925218E-005   1.7404570481430517E-006
 abs           7           8   8.5209608333539633E-002   1.9469898951515539E-003   8.0126306530445854E-004   8.4900000000000003E-002   2.9216061482516666E-004   1.6025763251280859E-005   1.4219554631818084E-006
 abs           7           9  0.19972129361807406        1.7396884686631687E-003   7.0122863986078483E-004  0.19950000000000001        2.0588210555219150E-004   1.4266961664919746E-005   1.1445508569252417E-006
 abs           7          10  0.28516174554691637        1.5313294451064605E-003   6.0119230532805045E-004  0.28499999999999998        1.4508266766884034E-004   1.5740252075599074E-005   9.2262717191998848E-007
 abs           7          11  0.35131964073608712        1.2219713281729184E-003   4.5114801139034175E-004  0.35120000000000001        1.0223802793085004E-004   1.6654743143837778E-005   7.4796501242511303E-007
 abs           7          12  0.45602019606361383        1.0164243713838305E-003   3.5113021857892613E-004  0.45590000000000003        7.2045920599199214E-005   4.7537798031932118E-005   6.1234498269968040E-007
 abs           7          13  0.64335761211184139        1.0042157922550612E-003   3.5108751241690240E-004  0.64329999999999998        5.0769902159075785E-005   6.3469910889716156E-006   4.9521859339135234E-007
 abs           8           1   9.7618091394620840E-003   7.9821214018998866E-003   3.8015062363317581E-003   6.3000000000000000E-003   3.3833187076659143E-003   7.1596397228613511E-005   6.8940345675555775E-006
 abs           8           2   7.5836487855775276E-003   6.1588944026142751E-003   2.9014103857241051E-003   5.1000000000000004E-003   2.3841843970146795E-003   9.3899595954396892E-005   5.5647926084517235E-006
 abs           8           3   1.0085053876463813E-002   4.8428438661059295E-003   2.2513335265798348E-003   8.3000000000000001E-003   1.6801063482694369E-003   1.0053174134718357E-004   4.4157868471924615E-006
 abs           8           4   1.3169262074785242E-002   3.9466363939659995E-003   1.8013532867413161E-003   1.1900000000000001E-002   1.1839509330862730E-003   8.1706417742076167E-005   3.6047239568918050E-006
 abs           8           5   2.2397247784490131E-002   3.2474030139418527E-003   1.4513451736062665E-003   2.1499999999999998E-002   8.3431612135725388E-004   6.0025354442635990E-005   2.9063086902440179E-006
 abs           8           6   4.1327031609368341E-002   2.6440894791148156E-003   1.1513100036668218E-003   4.0700000000000000E-002   5.8793263378076961E-004   3.6755905015589931E-005   2.3430705719796734E-006
 abs           8           7   5.5441728650283101E-002   2.2468752585117274E-003   9.5129651081082595E-004   5.5000000000000000E-002   4.1430912458226239E-004   2.5511274956159949E-005   1.9082507446795996E-006
 abs           8           8   8.5208808562787036E-002   1.9417175695315338E-003   8.0126262695768603E-004   8.4900000000000003E-002   2.9195870555490702E-004   1.5290814120765893E-005   1.5590431113557058E-006
 abs           8           9  0.19972050460278573        1.7340660606508854E-003   7.0122675593830024E-004  0.19950000000000001        2.0573982249423575E-004   1.3509885764011370E-005   1.2548945274929596E-006
 abs           8          10  0.28516090721575288        1.5256331942555474E-003   6.0118984237183897E-004  0.28499999999999998        1.4498240249253015E-004   1.4913237599924179E-005   1.0115756604027629E-006
 abs           8          11  0.35131875672492502        1.2161208036246835E-003   4.5114464585652674E-004  0.35120000000000001        1.0216737225529071E-004   1.5769277969520131E-005   8.2007470019288561E-007
 abs           8          12  0.45601761551176223        1.0103462243866094E-003   3.5112555400061159E-004  0.45590000000000003        7.1996130386161523E-005   4.4948001539104677E-005   6.7137983697109866E-007
 abs           8          13  0.64335729529942742        9.9829891211642178E-004   3.5108294398048309E-004  0.64329999999999998        5.0734815588963565E-005   6.0175222924035853E-006   5.4296154600682813E-007
 abs           9           1   9.7557639063290159E-003   7.9790635533389248E-003   3.8015158935417771E-003   6.3000000000000000E-003   3.3808743663562854E-003   6.7391886073606651E-005   7.4976538991242072E-006
 abs           9           2   7.5768493425079769E-003   6.1560015817356626E-003   2.9014197712969245E-003   5.1000000000000004E-003   2.3824618988065767E-003   8.8335415880864360E-005   6.0520278205348983E-006
 abs           9           3   1.0078157564623097E-002   4.8389320182171359E-003   2.2513371137526106E-003   8.3000000000000001E-003   1.6788925242976250E-003   9.4462621488124721E-005   4.8024188373475313E-006
 abs           9           4   1.3163857325825657E-002   3.9427713146634666E-003   1.8013572568622842E-003   1.1900000000000001E-002   1.1830955657903220E-003   7.6841418127294986E-005   3.9203419080388013E-006
 abs           9           5   2.2393437409487352E-002   3.2427820989085975E-003   1.4513458713589571E-003   2.1499999999999998E-002   8.3371335421146239E-004   5.6563279612537998E-005   3.1607756633562834E-006
 abs           9           6   4.1324818199777041E-002   2.6388508476527326E-003   1.1513087263940003E-003   4.0700000000000000E-002   5.8750787095225663E-004   3.4762106584559419E-005   2.5482222402252208E-006
 abs           9           7   5.5440356241753808E-002   2.2408364173878009E-003   9.5129282306251751E-004   5.5000000000000000E-002   4.1400979927605405E-004   2.4271111480184867E-005   2.0753309975680406E-006
 abs           9           8   8.5207927940527547E-002   1.9353886905503078E-003   8.0125813959497903E-004   8.4900000000000003E-002   2.9174777457667057E-004   1.4484618075637851E-005   1.6955478752267815E-006
 abs           9           9  0.19971968907252036        1.7275591690222984E-003   7.0122140228111990E-004  0.19950000000000001        2.0559118194611982E-004   1.2733121547471266E-005   1.3647690267360076E-006
 abs           9          10  0.28516003281811025        1.5191299334695154E-003   6.0118419429584162E-004  0.28499999999999998        1.4487765726862360E-004   1.4055014893685862E-005   1.1001459479433886E-006
 abs           9          11  0.35131782857746741        1.2095438003293401E-003   4.5113840837618645E-004  0.35120000000000001        1.0209355954354884E-004   1.4843140139783734E-005   8.9187778407882719E-007
 abs           9          12  0.45601496879853048        1.0036574602372531E-003   3.5111836047861596E-004  0.45590000000000003        7.1944115447327182E-005   4.2294519402783877E-005   7.3016368037222659E-007
 abs           9          13  0.64335694884488637        9.9187385043174921E-004   3.5107619079981125E-004  0.64329999999999998        5.0698161281079564E-005   5.6601821053239878E-006   5.9050149989834434E-007
 abs          10           1   9.7357368333389500E-003   7.9361439538351147E-003   3.8013825095074504E-003   6.3000000000000000E-003   3.3734709392851817E-003   5.4468153458987882E-005   7.7977405947828435E-006
 abs          10           2   7.5547768597231816E-003   6.1158045075228144E-003   2.9012958125646626E-003   5.1000000000000004E-003   2.3772447919264690E-003   7.1237813133603049E-005   6.2942546631090263E-006
 abs          10           3   1.0056291178529186E-002   4.7988451604998525E-003   2.2512119361442428E-003   8.3000000000000001E-003   1.6752160912164235E-003   7.6080456082118215E-005   4.9946312306452193E-006
 abs          10           4   1.3146622092831383E-002   3.9024910038541810E-003   1.8012311320927271E-003   1.1900000000000001E-002   1.1805048271853514E-003   6.2040015661830647E-005   4.0772499842001799E-006
 abs          10           5   2.2380871913319361E-002   3.2013914088015447E-003   1.4512158307906184E-003   2.1499999999999998E-002   8.3188769157296514E-004   4.5696938946636077E-005   3.2872827997613948E-006
 abs          10           6   4.1317084919795022E-002   2.5971254413204034E-003   1.1511797844006428E-003   4.0700000000000000E-002   5.8622134823506312E-004   2.8213359070234323E-005   2.6502124897301165E-006
 abs          10           7   5.5434972001657160E-002   2.1978890585081768E-003   9.5116216772692596E-004   5.5000000000000000E-002   4.1310320204009527E-004   1.9710405406675331E-005   2.1583942103859700E-006
 abs          10           8   8.5204619055523914E-002   1.8927992885514110E-003   8.0113035793820191E-004   8.4900000000000003E-002   2.9110890630231856E-004   1.1746738603425934E-005   1.7634106181665776E-006
 abs          10           9  0.19971687399156574        1.6857049771837147E-003   7.0109653220651899E-004  0.19950000000000001        2.0514097908228479E-004   1.0313619832693485E-005   1.4193926507496874E-006
 abs          10          10  0.28515707757533160        1.4781696412930084E-003   6.0106260696467110E-004  0.28499999999999998        1.4456040467252180E-004   1.1372992382295072E-005   1.1441782768161753E-006
 abs          10          11  0.35131477666317701        1.1694427292563161E-003   4.5102034972032058E-004  0.35120000000000001        1.0186999541764356E-004   1.1979093387880638E-005   9.2757437140554075E-007
 abs          10          12  0.45600674426047094        9.6417233736520469E-004   3.5100142169169218E-004  0.45590000000000003        7.1786572470513356E-005   3.4198300190809141E-005   7.5938780955728332E-007
 abs          10          13  0.64335575174564852        9.5408852128925836E-004   3.5096444991914003E-004  0.64329999999999998        5.0587142621700029E-005   4.5504672479004911E-006   6.1413577887015203E-007
 abs          11           1   9.7107451438885849E-003   7.8784507422622156E-003   3.8011959926723244E-003   6.3000000000000000E-003   3.3643476314545659E-003   3.8440433829277269E-005   7.9570786047424730E-006
 abs          11           2   7.5273466434178675E-003   6.0617435754764326E-003   2.9011221576486952E-003   5.1000000000000004E-003   2.3708157055593966E-003   5.0108067220002590E-005   6.4228706384685968E-006
 abs          11           3   1.0029210234625658E-002   4.7453537671809012E-003   2.2510390245753463E-003   8.3000000000000001E-003   1.6706855906257747E-003   5.3427953128873050E-005   5.0966908710115191E-006
 abs          11           4   1.3125197548487986E-002   3.8487141286237575E-003   1.8010567878566145E-003   1.1900000000000001E-002   1.1773122373786575E-003   4.3724747132991281E-005   4.1605639763359343E-006
 abs          11           5   2.2365206014619780E-002   3.1463776061732198E-003   1.4510374070519007E-003   2.1499999999999998E-002   8.2963791156083066E-004   3.2213648353030380E-005   3.3544547059208465E-006
 abs          11           6   4.1307346963675710E-002   2.5418056705333765E-003   1.1510032851327944E-003   4.0700000000000000E-002   5.8463595505602473E-004   2.0006642035064275E-005   2.7043665846183567E-006
 abs          11           7   5.5428145558891334E-002   2.1411169428823874E-003   9.5098391340281961E-004   5.5000000000000000E-002   4.1198599434930555E-004   1.3957065987051744E-005   2.2024985549728348E-006
 abs          11           8   8.5200435169746694E-002   1.8365557906080121E-003   8.0095605329568906E-004   8.4900000000000003E-002   2.9032162334887692E-004   8.3141024780432652E-006   1.7994439197652914E-006
 abs          11           9  0.19971333483456008        1.6304976355186217E-003   7.0092640875505177E-004  0.19950000000000001        2.0458619016175587E-004   7.3002480640493192E-006   1.4483963342619469E-006
 abs          11          10  0.28515337446721550        1.4241696545981919E-003   6.0089702070344913E-004  0.28499999999999998        1.4416945152791717E-004   8.0374574218026088E-006   1.1675582658592715E-006
 abs          11          11  0.35131097511388276        1.1166253493662237E-003   4.5085971348703927E-004  0.35120000000000001        1.0159449539300261E-004   8.4340901851478959E-006   9.4652830461642487E-007
 abs          11          12  0.45599652258504020        9.1224126275812607E-004   3.5084273269679644E-004  0.45590000000000003        7.1592430884431666E-005   2.4155249115119160E-005   7.7490504059256758E-007
 abs          11          13  0.64335426184576761        9.0438165041225574E-004   3.5081270116026113E-004  0.64329999999999998        5.0450333358269157E-005   3.1848274604751013E-006   6.2668494893559998E-007
 abs          12           1   9.6867329879904950E-003   7.8215964552243826E-003   3.8010142224647382E-003   6.3000000000000000E-003   3.3556694841389216E-003   2.2962190481287347E-005   8.1013133702856846E-006
 abs          12           2   7.5011352498459173E-003   6.0084005230870022E-003   2.9009526056462003E-003   5.1000000000000004E-003   2.3647003185052373E-003   2.9895635907802494E-005   6.5392954328776597E-006
 abs          12           3   1.0003445977765962E-002   4.6926229997352993E-003   2.2508704806742637E-003   8.3000000000000001E-003   1.6663761502046888E-003   3.1880751023443643E-005   5.1890765378300465E-006
 abs          12           4   1.3104646217676867E-002   3.7957330563546188E-003   1.8008870254958662E-003   1.1900000000000001E-002   1.1742754260405659E-003   2.6134810789091584E-005   4.2359808472082018E-006
 abs          12           5   2.2350136110835549E-002   3.0921722720282725E-003   1.4508636747462616E-003   2.1499999999999998E-002   8.2749790678015461E-004   1.9222944497333703E-005   3.4152595580616125E-006
 abs          12           6   4.1297823720670548E-002   2.4871141761208158E-003   1.1508305570688019E-003   4.0700000000000000E-002   5.8312791917514129E-004   1.1942413944717066E-005   2.7533875506853307E-006
 abs          12           7   5.5421458346260548E-002   2.0848062688911466E-003   9.5080858903314087E-004   5.5000000000000000E-002   4.1092329942517855E-004   8.2926244743752725E-006   2.2424223609908415E-006
 abs          12           8   8.5196357690169089E-002   1.7806257818041848E-003   8.0078392848095651E-004   8.4900000000000003E-002   2.8957275489284006E-004   4.9528735598208215E-006   1.8320617164175470E-006
 abs          12           9  0.19970989674663972        1.5755345058009456E-003   7.0075813423748213E-004  0.19950000000000001        2.0405847148002068E-004   4.3636243272424224E-006   1.4746508324343549E-006
 abs          12          10  0.28514978575509514        1.3703572045182190E-003   6.0073297963413660E-004  0.28499999999999998        1.4379757445817632E-004   4.7994585117652243E-006   1.1887221252478017E-006
 abs          12          11  0.35130733193301983        1.0639086110561333E-003   4.5070015012267699E-004  0.35120000000000001        1.0133243805111673E-004   5.0358093259740955E-006   9.6368564273986569E-007
 abs          12          12  0.45598662471001233        8.6045003047164476E-004   3.5068537211987690E-004  0.45590000000000003        7.1407762196781333E-005   1.4427996382764183E-005   7.8895143279252742E-007
 abs          12          13  0.64335285320799551        8.5479899534482732E-004   3.5066220400864354E-004  0.64329999999999998        5.0320199533537987E-005   1.8949638468106755E-006   6.3804461511073529E-007
 abs          13           1   9.6763711162613647E-003   7.7969347804577836E-003   3.8009349668040502E-003   6.3000000000000000E-003   3.3519308280028346E-003   1.6290369065908156E-005   8.1499191926217212E-006
 abs          13           2   7.4898332291675786E-003   5.9852565024288368E-003   2.9008786500250784E-003   5.1000000000000004E-003   2.3620657320545832E-003   2.1188967568623666E-005   6.5785295443711277E-006
 abs          13           3   9.9923377407484040E-003   4.6697646000391814E-003   2.2507970850046454E-003   8.3000000000000001E-003   1.6645195885115786E-003   2.2597942557892343E-005   5.2202096789341750E-006
 abs          13           4   1.3095770384757132E-002   3.7727622768231098E-003   1.8008130840375756E-003   1.1900000000000001E-002   1.1729671291276032E-003   1.8541859973254748E-005   4.2613956562727962E-006
 abs          13           5   2.2343634586795835E-002   3.0686802784202502E-003   1.4507880643622683E-003   2.1499999999999998E-002   8.2657596552777402E-004   1.3622871020190767E-005   3.4357502478699416E-006
 abs          13           6   4.1293712808075735E-002   2.4634103825414448E-003   1.1507553834315197E-003   4.0700000000000000E-002   5.8247823815516832E-004   8.4646627439942317E-006   2.7699071765773170E-006
 abs          13           7   5.5418575357023603E-002   2.0604014462251661E-003   9.5073229499434756E-004   5.5000000000000000E-002   4.1046547694828728E-004   5.8540037497780126E-006   2.2558763255394112E-006
 abs          13           8   8.5194597821731111E-002   1.7563804918170388E-003   8.0070900430955980E-004   8.4900000000000003E-002   2.8925013284616924E-004   3.5046352635908550E-006   1.8430536213379841E-006
 abs          13           9  0.19970841154264399        1.5517047675706944E-003   7.0068487593788562E-004  0.19950000000000001        2.0383112356625108E-004   3.0969207148744454E-006   1.4834983628399668E-006
 abs          13          10  0.28514823742614337        1.3470255130876884E-003   6.0066156116109551E-004  0.28499999999999998        1.4363736509112048E-004   3.4042068962395430E-006   1.1958541560415533E-006
 abs          13          11  0.35130575853129437        1.0410525741737504E-003   4.5063068349032764E-004  0.35120000000000001        1.0121954041829111E-004   3.5695233642449737E-006   9.6946751180206099E-007
 abs          13          12  0.45598236250408236        8.3799373151183948E-004   3.5061686913257401E-004  0.45590000000000003        7.1328204579571700E-005   1.0240614561766596E-005   7.9368494098080817E-007
 abs          13          13  0.64335224654206868        8.3329560139678161E-004   3.5059666972210910E-004  0.64329999999999998        5.0264136228243955E-005   1.3405331197599888E-006   6.4187272072608986E-007
 abs          14           1   9.6800161633284615E-003   7.8079804407707480E-003   3.8009640166941170E-003   6.3000000000000000E-003   3.3529912826572830E-003   1.8871149340732742E-005   8.1537313304469406E-006
 abs          14           2   7.4933448565046093E-003   5.9958880763203524E-003   2.9009068709826649E-003   5.1000000000000004E-003   2.3628130218192596E-003   2.3950228023190512E-005   6.5816066621581508E-006
 abs          14           3   9.9954998196903049E-003   4.6802072772065932E-003   2.2508245887264476E-003   8.3000000000000001E-003   1.6650461947083147E-003   2.5230973541573299E-005   5.2226514404169952E-006
 abs          14           4   1.3098882130128227E-002   3.7832019332453299E-003   1.8008403894679205E-003   1.1900000000000001E-002   1.1733382222424151E-003   2.1280518954858978E-005   4.2633889309526495E-006
 abs          14           5   2.2345936333965144E-002   3.0794630024025848E-003   1.4508162753577914E-003   2.1499999999999998E-002   8.2683747042595879E-004   1.5661506213605347E-005   3.4373573255805733E-006
 abs          14           6   4.1295591169285828E-002   2.4749965502107799E-003   1.1507864762434858E-003   4.0700000000000000E-002   5.8266251754232211E-004   1.0157448938389279E-005   2.7712028051192217E-006
 abs          14           7   5.5419819856921425E-002   2.0730291661725949E-003   9.5076691489333343E-004   5.5000000000000000E-002   4.1059533643759527E-004   6.9675889685107361E-006   2.2569315153230588E-006
 abs          14           8   8.5195337874735821E-002   1.7694947576570917E-003   8.0074545387704744E-004   8.4900000000000003E-002   2.8934164328162153E-004   4.1523157415594960E-006   1.8439157126370207E-006
 abs          14           9  0.19970904514965857        1.5649072487901204E-003   7.0072172324780102E-004  0.19950000000000001        2.0389560988019929E-004   3.6653475067630463E-006   1.4841922715878908E-006
 abs          14          10  0.28514886246979415        1.3601449019115326E-003   6.0069835594103705E-004  0.28499999999999998        1.4368280782850966E-004   3.9832484469323190E-006   1.1964135187485872E-006
 abs          14          11  0.35130628884669246        1.0541871198931994E-003   4.5066783793260468E-004  0.35120000000000001        1.0125156337409347E-004   4.0673623365553283E-006   9.6992098179172763E-007
 abs          14          12  0.45598406841687911        8.5088351992889104E-004   3.5065306382104169E-004  0.45590000000000003        7.1350770775123210E-005   1.1923589915556473E-005   7.9405618838993082E-007
 abs          14          13  0.64335237994049865        8.4573377941313255E-004   3.5063155858112841E-004  0.64329999999999998        5.0280038357479363E-005   1.4577291834484609E-006   6.4217295772474269E-007
 abs          15           1   9.6756436633947153E-003   7.7959003541128681E-003   3.8009228305753021E-003   6.3000000000000000E-003   3.3513716590493213E-003   1.6119419272500723E-005   8.1525850728931579E-006
 abs          15           2   7.4884483855200430E-003   5.9846767913781553E-003   2.9008688401681625E-003   5.1000000000000004E-003   2.3616716923529017E-003   2.0196011752093481E-005   6.5806814150477443E-006
 abs          15           3   9.9906733977977950E-003   4.6692509695699788E-003   2.2507872808074951E-003   8.3000000000000001E-003   1.6642419134269273E-003   2.1209567134635349E-005   5.2219172362322194E-006
 abs          15           4   1.3095167835290749E-002   3.7722195092774508E-003   1.8008028496959063E-003   1.1900000000000001E-002   1.1727714548026378E-003   1.8133590907512612E-005   4.2627895805977300E-006
 abs          15           5   2.2343137536925545E-002   3.0683698176808155E-003   1.4507783715350187E-003   2.1499999999999998E-002   8.2643807616150720E-004   1.3262586664683222E-005   3.4368740993569196E-006
 abs          15           6   4.1293866582965619E-002   2.4641406225736841E-003   1.1507499615258387E-003   4.0700000000000000E-002   5.8238106916106119E-004   8.7147005771757835E-006   2.7708132273885243E-006
 abs          15           7   5.5418478536321855E-002   2.0621882655736121E-003   9.5073104778124252E-004   5.5000000000000000E-002   4.1039700311545007E-004   5.8249189721739201E-006   2.2566142342289232E-006
 abs          15           8   8.5194560758427809E-002   1.7590126269814354E-003   8.0071122293297510E-004   8.4900000000000003E-002   2.8920188015171144E-004   3.5152217824745386E-006   1.8436564936085183E-006
 abs          15           9  0.19970843752546216        1.5548162669848078E-003   7.0068895209901246E-004  0.19950000000000001        2.0379712046716985E-004   3.1564213722598693E-006   1.4839836227455846E-006
 abs          15          10  0.28514821728041034        1.3503550716623652E-003   6.0066673571776603E-004  0.28499999999999998        1.4361340351218442E-004   3.4076315720741238E-006   1.1962453260552380E-006
 abs          15          11  0.35130561223902795        1.0447055422911761E-003   4.5063750844412029E-004  0.35120000000000001        1.0120265497900400E-004   3.4397994193667282E-006   9.6978462958598338E-007
 abs          15          12  0.45598233793213649        8.4168470326192383E-004   3.5062346557087189E-004  0.45590000000000003        7.1316305611616396E-005   1.0227681965438335E-005   7.9394455938632706E-007
 abs          15          13  0.64335209767824286        8.3701919926000990E-004   3.5060352082949862E-004  0.64329999999999998        5.0255751167245910E-005   1.1998443950849660E-006   6.4208268057753303E-007
 abs          16           1   9.6584495547986128E-003   7.7530767896550517E-003   3.8007878778361101E-003   6.3000000000000000E-003   3.3453904618047331E-003   4.9086609988784480E-006   8.1504319950011147E-006
 abs          16           2   7.4700957140390071E-003   5.9442416520208317E-003   2.9007418971027927E-003   5.1000000000000004E-003   2.3574568138923823E-003   6.0599566735357173E-006   6.5789434730891344E-006
 abs          16           3   9.9728509707977114E-003   4.6294224243852520E-003   2.2506621411826863E-003   8.3000000000000001E-003   1.6612717387761871E-003   6.3586938809342007E-006   5.2205381405889497E-006
 abs          16           4   1.3080457428940583E-002   3.7321977311166495E-003   1.8006769346750511E-003   1.1900000000000001E-002   1.1706784081018768E-003   5.5173570504697447E-006   4.2616637882358772E-006
 abs          16           5   2.2332383137514081E-002   3.0273756168423889E-003   1.4506495927254712E-003   2.1499999999999998E-002   8.2496313108025587E-004   3.9840400045607673E-006   3.4359664292651763E-006
 abs          16           6   4.1286750877926853E-002   2.4221945630468608E-003   1.1506195458180547E-003   4.0700000000000000E-002   5.8134169292931416E-004   2.6391035351840942E-006   2.7700814623533201E-006
 abs          16           7   5.5413600787746174E-002   2.0184350139861732E-003   9.5059634336004380E-004   5.5000000000000000E-002   4.0966456706420122E-004   1.6802024140749574E-006   2.2560182678973674E-006
 abs          16           8   8.5191571151673431E-002   1.7150443467145512E-003   8.0057687628698070E-004   8.4900000000000003E-002   2.8868574118991582E-004   1.0422408951055066E-006   1.8431695884120169E-006
 abs          16           9  0.19970588489425942        1.5113031595805051E-003   7.0055650514622397E-004  0.19950000000000001        2.0343340348815268E-004   9.6789906494306369E-007   1.4835917062796147E-006
 abs          16          10  0.28514558956383207        1.3075900199572609E-003   6.0053691769288223E-004  0.28499999999999998        1.4335709648904255E-004   1.0365379424832356E-006   1.1959294005736931E-006
 abs          16          11  0.35130302605471592        1.0025947960785675E-003   4.5051022110970232E-004  0.35120000000000001        1.0102203847248466E-004   1.0344877315976858E-006   9.6952851182366201E-007
 abs          16          12  0.45597511585178357        8.0026845648501117E-004   3.5049814078347898E-004  0.45590000000000003        7.1189027310665623E-005   3.1330895923217438E-006   7.9373488055893208E-007
 abs          16          13  0.64335115692002987        7.9723804934789418E-004   3.5048324872211925E-004  0.64329999999999998        5.0166059664486263E-005   3.4894725729789086E-007   6.4191310810302902E-007
 abs          17           1   9.6570621829160461E-003   7.7492878193243962E-003   3.8007762818218407E-003   6.3000000000000000E-003   3.3449077098800361E-003   3.9957067914740211E-006   8.1587662445368254E-006
 abs          17           2   7.4686079498898980E-003   5.9406808213323808E-003   2.9007310350046547E-003   5.1000000000000004E-003   2.3571166243607591E-003   4.9056547369802234E-006   6.5856707921588096E-006
 abs          17           3   9.9714179440081024E-003   4.6259218982507844E-003   2.2506514290793400E-003   8.3000000000000001E-003   1.6610320112650054E-003   5.1600563250266610E-006   5.2258764180693390E-006
 abs          17           4   1.3079273639996973E-002   3.7286940370995511E-003   1.8006662087937002E-003   1.1900000000000001E-002   1.1705094749799691E-003   4.4981434512320442E-006   4.2660215657708894E-006
 abs          17           5   2.2331498084763576E-002   3.0237996500949624E-003   1.4506386434336141E-003   2.1499999999999998E-002   8.2484408592128856E-004   3.2145189548859747E-006   3.4394798874027797E-006
 abs          17           6   4.1286152222575749E-002   2.4185655497169843E-003   1.1506085144343517E-003   4.0700000000000000E-002   5.8125780322365128E-004   2.1215053343490233E-006   2.7729140177510782E-006
 abs          17           7   5.5413163184325896E-002   2.0146773908280916E-003   9.5058499797150359E-004   5.5000000000000000E-002   4.0960545098777052E-004   1.2994081717518282E-006   2.2583251663799646E-006
 abs          17           8   8.5191315141156465E-002   1.7113003255880442E-003   8.0056564051979990E-004   8.4900000000000003E-002   2.8864408279494420E-004   8.2600403432853701E-007   1.8450543271959096E-006
 abs          17           9  0.19970567740126119        1.5076275453709089E-003   7.0054551131646661E-004  0.19950000000000001        2.0340404731337939E-004   7.8824519024231448E-007   1.4851087575839908E-006
 abs          17          10  0.28514537461505196        1.3039855323518999E-003   6.0052615879844281E-004  0.28499999999999998        1.4333640954232010E-004   8.4105320775070780E-007   1.1971523018944558E-006
 abs          17          11  0.35130281523327245        9.9904993662223453E-004   4.5049967125567185E-004  0.35120000000000001        1.0100746062751672E-004   8.3725273868845482E-007   9.7051990621287723E-007
 abs          17          12  0.45597453237142421        7.9681011705572862E-004   3.5048784534553030E-004  0.45590000000000003        7.1178754476942946E-005   2.5590704306188464E-006   7.9454651662482809E-007
 abs          17          13  0.64335107980740602        7.9393546833019066E-004   3.5047343154470846E-004  0.64329999999999998        5.0158820520914230E-005   2.7841738667263434E-007   6.4256949834424011E-007
 abs          18           1   9.6553902692693618E-003   7.7459045066303961E-003   3.8007662833571755E-003   6.3000000000000000E-003   3.3443307703505940E-003   2.8917914365070422E-006   8.1677074822625866E-006
 abs          18           2   7.4668520650746726E-003   5.9374442048045501E-003   2.9007214990913353E-003   5.1000000000000004E-003   2.3567100619458735E-003   3.5491150630502868E-006   6.5928880657479049E-006
 abs          18           3   9.9697046729264206E-003   4.6226868827990196E-003   2.2506418529640200E-003   8.3000000000000001E-003   1.6607455115735083E-003   3.7275578675397720E-006   5.2316034853708072E-006
 abs          18           4   1.3077830376800733E-002   3.7254293990059426E-003   1.8006565378426121E-003   1.1900000000000001E-002   1.1703075820596628E-003   3.2520980183179427E-006   4.2706967227516801E-006
 abs          18           5   2.2330475427776480E-002   3.0204047430264259E-003   1.4506285748557169E-003   2.1499999999999998E-002   8.2470181438495027E-004   2.3303641588135035E-006   3.4432492327185416E-006
 abs          18           6   4.1285477378325684E-002   2.4149827143281548E-003   1.1505979524850721E-003   4.0700000000000000E-002   5.8115754616648769E-004   1.5438792894083695E-006   2.7759528697885917E-006
 abs          18           7   5.5412750328076396E-002   2.0108329840749632E-003   9.5057372319842554E-004   5.5000000000000000E-002   4.0953480103367713E-004   9.5472696511317337E-007   2.2608000776066706E-006
 abs          18           8   8.5191044190529988E-002   1.7073445200820098E-003   8.0055408911440876E-004   8.4900000000000003E-002   2.8859429661375540E-004   6.0281758363718923E-007   1.8470763325901014E-006
 abs          18           9  0.19970542691159607        1.5036408744564579E-003   7.0053388954500312E-004  0.19950000000000001        2.0336896358446306E-004   5.7121171498020290E-007   1.4867362966079283E-006
 abs          18          10  0.28514511974276596        1.3000397128176400E-003   6.0051467224471130E-004  0.28499999999999998        1.4331168645640983E-004   6.0959204173335021E-007   1.1984642678221902E-006
 abs          18          11  0.35130256773842128        9.9513370458741797E-004   4.5048829570207283E-004  0.35120000000000001        1.0099003856333466E-004   6.0611635349016773E-007   9.7158350442600699E-007
 abs          18          12  0.45597381300706674        7.9291056310326050E-004   3.5047650047992363E-004  0.45590000000000003        7.1166477355815537E-005   1.8511124462551820E-006   7.9541726461250020E-007
 abs          18          13  0.64335099497607084        7.9015629514045892E-004   3.5046244214912250E-004  0.64329999999999998        5.0150168979879716E-005   2.0153339705455503E-007   6.4327369386447168E-007
 abs          19           1   9.6536855921796269E-003   7.7423021780392929E-003   3.8007555870647838E-003   6.3000000000000000E-003   3.3437427562099022E-003   1.7661719614292708E-006   8.1766640082952146E-006
 abs          19           2   7.4650587027409940E-003   5.9340067601404613E-003   2.9007113234336946E-003   5.1000000000000004E-003   2.3562956953843417E-003   2.1628896767536492E-006   6.6001176798984241E-006
 abs          19           3   9.9679584147020980E-003   4.6192603039493319E-003   2.2506316666915890E-003   8.3000000000000001E-003   1.6604535123928192E-003   2.2675619640951644E-006   5.2373403451825559E-006
 abs          19           4   1.3076360950758483E-002   3.7219757771147039E-003   1.8006462650284613E-003   1.1900000000000001E-002   1.1701018137148236E-003   1.9837571700386537E-006   4.2753798736184127E-006
 abs          19           5   2.2329427440964750E-002   3.0168232113104970E-003   1.4506179120504995E-003   2.1499999999999998E-002   8.2455681188310095E-004   1.4236040585473594E-006   3.4470250231048453E-006
 abs          19           6   4.1284782467522922E-002   2.4112226088957812E-003   1.1505868264064269E-003   4.0700000000000000E-002   5.8105536463045498E-004   9.4810597462028587E-007   2.7789969178519683E-006
 abs          19           7   5.5412314916293101E-002   2.0068169101845456E-003   9.5056190244738781E-004   5.5000000000000000E-002   4.0946279492224574E-004   5.8884215026372634E-007   2.2632792205967474E-006
 abs          19           8   8.5190763041197243E-002   1.7032288227599788E-003   8.0054202952290171E-004   8.4900000000000003E-002   2.8854355476464274E-004   3.7038463727288331E-007   1.8491017953399635E-006
 abs          19           9  0.19970517123931936        1.4995067948143303E-003   7.0052179957043033E-004  0.19950000000000001        2.0333320640774307E-004   3.4966629308142737E-007   1.4883666185034099E-006
 abs          19          10  0.28514485914468396        1.2959525184390260E-003   6.0050273676148292E-004  0.28499999999999998        1.4328648879985331E-004   3.7287740712099337E-007   1.1997784770341671E-006
 abs          19          11  0.35130231467597167        9.9108137794609650E-004   4.5047648808532108E-004  0.35120000000000001        1.0097228207487045E-004   3.6974497550020522E-007   9.7264892124818883E-007
 abs          19          12  0.45597308098242867        7.8888615236787562E-004   3.5046475950475210E-004  0.45590000000000003        7.1153964569879577E-005   1.1307283573386801E-006   7.9628950146142928E-007
 abs          19          13  0.64335090773036929        7.8626312208205902E-004   3.5045109129473734E-004  0.64329999999999998        5.0141351368661441E-005   1.2239990711709809E-007   6.4397909346377337E-007
 abs          20           1   9.6514581398777343E-003   7.7374184954318139E-003   3.8007410794291215E-003   6.3000000000000000E-003   3.3429800112130311E-003   2.9231228906596178E-007   8.1858163756360263E-006
 abs          20           2   7.4627224313419498E-003   5.9293484149581088E-003   2.9006975200633308E-003   5.1000000000000004E-003   2.3557581980695546E-003   3.5672789728893547E-007   6.6075053751048969E-006
 abs          20           3   9.9656916692668282E-003   4.6146276770113390E-003   2.2506178994575608E-003   8.3000000000000001E-003   1.6600747444368326E-003   3.7372218416348543E-007   5.2432026458322262E-006
 abs          20           4   1.3074443212213745E-002   3.7173100967851408E-003   1.8006323952934463E-003   1.1900000000000001E-002   1.1698349004474729E-003   3.2814634110141139E-007   4.2801654251691647E-006
 abs          20           5   2.2328054628429850E-002   3.0119922214314949E-003   1.4506035448845008E-003   2.1499999999999998E-002   8.2436872128261091E-004   2.3502377319513998E-007   3.4508833740426387E-006
 abs          20           6   4.1283861944330022E-002   2.4061551908464759E-003   1.1505718327398074E-003   4.0700000000000000E-002   5.8092281942450166E-004   1.5701737915504272E-007   2.7821075263599568E-006
 abs          20           7   5.5411731912434342E-002   2.0014089787012846E-003   9.5054597178944906E-004   5.5000000000000000E-002   4.0936939189426111E-004   9.6707968135647560E-008   2.2658125719489263E-006
 abs          20           8   8.5190390005997096E-002   1.6976910792043615E-003   8.0052577824278603E-004   8.4900000000000003E-002   2.8847773476327831E-004   6.1099687435345991E-008   1.8511715463856637E-006
 abs          20           9  0.19970483484351390        1.4939504421621764E-003   7.0050552324181037E-004  0.19950000000000001        2.0328682383671630E-004   5.7987088508113687E-008   1.4900325886370151E-006
 abs          20          10  0.28514451665453805        1.2904600523825666E-003   6.0048666695082509E-004  0.28499999999999998        1.4325380355448020E-004   6.1729561167825821E-008   1.2011214224380969E-006
 abs          20          11  0.35130198401480117        9.8563540506357091E-004   4.5046058214483995E-004  0.35120000000000001        1.0094924917174649E-004   6.1027995152592129E-008   9.7373763422598482E-007
 abs          20          12  0.45597212227128986        7.8348643867164254E-004   3.5044897879347330E-004  0.45590000000000003        7.1137733557376470E-005   1.8735692203943183E-007   7.9718081043775681E-007
 abs          20          13  0.64335079465372924        7.8104322167440424E-004   3.5043584662731916E-004  0.64329999999999998        5.0129913567466435E-005   2.0040244736854330E-008   6.4469991716610534E-007
 abs          21           1   9.6510455985654234E-003   7.7369202311033582E-003   3.8007407333927939E-003   6.3000000000000000E-003   3.3428298328387215E-003   6.7358117225407565E-010   8.2150921455304299E-006
 abs          21           2   7.4622843081326162E-003   5.9288661482845379E-003   2.9006971609792831E-003   5.1000000000000004E-003   2.3556523691578447E-003   8.0250435938015071E-010   6.6311364704118175E-006
 abs          21           3   9.9652629628253740E-003   4.6141004576354767E-003   2.2506172785980699E-003   8.3000000000000001E-003   1.6600001680632031E-003   8.4031601465329312E-010   5.2619544461567459E-006
 abs          21           4   1.3074078575996408E-002   3.7167851497788406E-003   1.8006318027291974E-003   1.1900000000000001E-002   1.1697823473652018E-003   7.5561393426721413E-010   4.2954730172708139E-006
 abs          21           5   2.2327795441930635E-002   3.0114158954356682E-003   1.4506027548451240E-003   2.1499999999999998E-002   8.2433168775145646E-004   5.2905900338052444E-010   3.4632251201745932E-006
 abs          21           6   4.1283689137184595E-002   2.4055097718090829E-003   1.1505708023318668E-003   4.0700000000000000E-002   5.8089672233617689E-004   3.5738719764000913E-010   2.7920574612260287E-006
 abs          21           7   5.5411625117950711E-002   2.0006775611892710E-003   9.5054465957620127E-004   5.5000000000000000E-002   4.0935100158694229E-004   2.0033524786344869E-010   2.2739160285177367E-006
 abs          21           8   8.5190322701319793E-002   1.6969191234166821E-003   8.0052432617095878E-004   8.4900000000000003E-002   2.8846477533274445E-004   1.3390707996547927E-010   1.8577920799696268E-006
 abs          21           9  0.19970477318800520        1.4931606247445229E-003   7.0050399259031604E-004  0.19950000000000001        2.0327769148036954E-004   1.3498066831587428E-010   1.4953615441374018E-006
 abs          21          10  0.28514445292707113        1.2896705357330377E-003   6.0048511125045275E-004  0.28499999999999998        1.4324736809173159E-004   1.4186398516210634E-010   1.2054171154716221E-006
 abs          21          11  0.35130192207205246        9.8483812012181205E-004   4.5045896790128802E-004  0.35120000000000001        1.0094471417779571E-004   1.3776317559239323E-010   9.7722011142911001E-007
 abs          21          12  0.45597193500557615        7.8269038111591156E-004   3.5044734863957390E-004  0.45590000000000003        7.1134537801152407E-005   4.3592545451379221E-010   8.0003184946668888E-007
 abs          21          13  0.64335077470976376        7.8027410916542991E-004   3.5043427677890345E-004  0.64329999999999998        5.0127661556117690E-005   4.2584508075089596E-011   6.4700562322641622E-007
 abs          22           1   9.6510776508700272E-003   7.7374692630213654E-003   3.8007437087090724E-003   6.3000000000000000E-003   3.3428294946615598E-003   5.1991533345495433E-013   8.2481556885504743E-006
 abs          22           2   7.4623099564828776E-003   5.9293828358236121E-003   2.9006999611380624E-003   5.1000000000000004E-003   2.3556521308484269E-003   6.1787433259121808E-013   6.6578250165750550E-006
 abs          22           3   9.9652831331781839E-003   4.6145577193895497E-003   2.2506197572581556E-003   8.3000000000000001E-003   1.6600000001293946E-003   6.4697254345998916E-013   5.2831324018166435E-006
 abs          22           4   1.3074094990751789E-002   3.7172531951217462E-003   1.8006343397818242E-003   1.1900000000000001E-002   1.1697822290242469E-003   5.8320246777268327E-013   4.3127611443401169E-006
 abs          22           5   2.2327808768437971E-002   3.0118622437594221E-003   1.4506051747347831E-003   2.1499999999999998E-002   8.2433160435799505E-004   4.0735094446550837E-013   3.4771636726242195E-006
 abs          22           6   4.1283699958589097E-002   2.4059321973063765E-003   1.1505730931831693E-003   4.0700000000000000E-002   5.8089666356979787E-004   2.7547159935003839E-013   2.8032947438210760E-006
 abs          22           7   5.5411634028258550E-002   2.0010803411737005E-003   9.5054684464110264E-004   5.5000000000000000E-002   4.0935096017497496E-004   1.5278478329514188E-013   2.2830679307850493E-006
 abs          22           8   8.5190330015447957E-002   1.6973066752535438E-003   8.0052642910827048E-004   8.4900000000000003E-002   2.8846474615022434E-004   1.0279107855723398E-013   1.8652691949271007E-006
 abs          22           9  0.19970477905099349        1.4935330092857059E-003   7.0050601357530011E-004  0.19950000000000001        2.0327767091579517E-004   1.0429305176842118E-013   1.5013799733734031E-006
 abs          22          10  0.28514445762230567        1.2900288908436531E-003   6.0048705629455910E-004  0.28499999999999998        1.4324735360012094E-004   1.0946658630538637E-013   1.2102685961304455E-006
 abs          22          11  0.35130192585723213        9.8517703455080954E-004   4.5046080775202815E-004  0.35120000000000001        1.0094470396573030E-004   1.0610565452406253E-013   9.8115316033737655E-007
 abs          22          12  0.45597193778270484        7.8302065397818361E-004   3.5044914173313143E-004  0.45590000000000003        7.1134530604831543E-005   3.3681479734936874E-013   8.0325176313334674E-007
 abs          22          13  0.64335077726616485        7.8059472578283684E-004   3.5043601746172405E-004  0.64329999999999998        5.0127656484956087E-005   3.2582611293793676E-014   6.4960964736623010E-007
 abs          23           1   9.6511108936176166E-003   7.7380233202716964E-003   3.8007467061626681E-003   6.3000000000000000E-003   3.3428294944011141E-003   2.4489322641724525E-016   8.2813992162580102E-006
 abs          23           2   7.4623367895096816E-003   5.9299043014322018E-003   2.9007027822707462E-003   5.1000000000000004E-003   2.3556521306648940E-003   2.9136894845702937E-016   6.6846588444958445E-006
 abs          23           3   9.9653044256421529E-003   4.6150194335598431E-003   2.2506222551355571E-003   8.3000000000000001E-003   1.6600000000000612E-003   3.0521133707884835E-016   5.3044256417861767E-006
 abs          23           4   1.3074112372314433E-002   3.7177257731730072E-003   1.8006368964328643E-003   1.1900000000000001E-002   1.1697822289331074E-003   2.7482059685150569E-016   4.3301433810499410E-006
 abs          23           5   2.2327822782394931E-002   3.0123130939467262E-003   1.4506076138382498E-003   2.1499999999999998E-002   8.2433160429377006E-004   1.9201236744010522E-016   3.4911781009715145E-006
 abs          23           6   4.1283711256722352E-002   2.4063591467978394E-003   1.1505754029841743E-003   4.0700000000000000E-002   5.8089666352453926E-004   1.2967197851219387E-016   2.8145931976824611E-006
 abs          23           7   5.5411643229795492E-002   2.0014877354942303E-003   9.5054904864902152E-004   5.5000000000000000E-002   4.0935096014308174E-004   7.2061060855784031E-017   2.2922696523433123E-006
 abs          23           8   8.5190337533140092E-002   1.6976988600358497E-003   8.0052855083279171E-004   8.4900000000000003E-002   2.8846474612774953E-004   4.8435291757016424E-017   1.8727870123040992E-006
 abs          23           9  0.19970478510206455        1.4939099845774466E-003   7.0050805301656170E-004  0.19950000000000001        2.0327767089995747E-004   4.9090593696724819E-017   1.5074311645280104E-006
 abs          23          10  0.28514446250007530        1.2903917430803372E-003   6.0048901933006235E-004  0.28499999999999998        1.4324735358896032E-004   5.1548652023547066E-017   1.2151464863071395E-006
 abs          23          11  0.35130192981157715        9.8552033177665339E-004   4.5046266499490940E-004  0.35120000000000001        1.0094470395786553E-004   5.0030013433348053E-017   9.8510761918886135E-007
 abs          23          12  0.45597194101980421        7.8335526008612821E-004   3.5045095195706367E-004  0.45590000000000003        7.1134530599289332E-005   1.5857269927945651E-016   8.0648920472055128E-007
 abs          23          13  0.64335077988432776        7.8091955443426329E-004   3.5043777478948712E-004  0.64329999999999998        5.0127656481050561E-005   1.5401810593186927E-017   6.5222784677064728E-007
 abs          24           1   9.6511453823137552E-003   7.7385981318794077E-003   3.8007498158934678E-003   6.3000000000000000E-003   3.3428294944009914E-003   2.5164121118717005E-020   8.3158879127644765E-006
 abs          24           2   7.4623646284244565E-003   5.9304453005923838E-003   2.9007057090762044E-003   5.1000000000000004E-003   2.3556521306648073E-003   3.0965657784443292E-020   6.7124977596497570E-006
 abs          24           3   9.9653265164408554E-003   4.6154984432328393E-003   2.2506248465778895E-003   8.3000000000000001E-003   1.6600000000000000E-003   3.2659916165071755E-020   5.3265164408556778E-006
 abs          24           4   1.3074130405619479E-002   3.7182160536618479E-003   1.8006395488503106E-003   1.1900000000000001E-002   1.1697822289330642E-003   2.8462500281239848E-020   4.3481766864127986E-006
 abs          24           5   2.2327837321747160E-002   3.0127808328038316E-003   1.4506101443054686E-003   2.1499999999999998E-002   8.2433160429373970E-004   2.0256933140104618E-020   3.5057174534203188E-006
 abs          24           6   4.1283722978370685E-002   2.4068020898600144E-003   1.1505777993061426E-003   4.0700000000000000E-002   5.8089666352451790E-004   1.3278319006014578E-020   2.8263148461683188E-006
 abs          24           7   5.5411652776176434E-002   2.0019103910878001E-003   9.5055133521578503E-004   5.5000000000000000E-002   4.0935096014306667E-004   8.0748568965318900E-021   2.3018160333697754E-006
 abs          24           8   8.5190345332544617E-002   1.6981057364871888E-003   8.0053075203439573E-004   8.4900000000000003E-002   2.8846474612773896E-004   5.1623677977565486E-021   1.8805864168735354E-006
 abs          24           9  0.19970479137990893        1.4943010818865776E-003   7.0051016885300634E-004  0.19950000000000001        2.0327767089994999E-004   4.9539242483884010E-021   1.5137090089574554E-006
 abs          24          10  0.28514446756067152        1.2907681883288671E-003   6.0049105589885909E-004  0.28499999999999998        1.4324735358895504E-004   5.2824681670196232E-021   1.2202070826245916E-006
 abs          24          11  0.35130193391415404        9.8587648955665293E-004   4.5046459180850149E-004  0.35120000000000001        1.0094470395786181E-004   5.2964633915673976E-021   9.8921019615891156E-007
 abs          24          12  0.45597194437850713        7.8370240121344642E-004   3.5045282999056473E-004  0.45590000000000003        7.1134530599286717E-005   1.6065391268809592E-020   8.0984790784438363E-007
 abs          24          13  0.64335078260059442        7.8125655182733928E-004   3.5043959794538588E-004  0.64329999999999998        5.0127656481048711E-005   1.7589918515893922E-021   6.5494411339092773E-007
 abs          25           1   9.6510813806515976E-003   7.7375314375100999E-003   3.8007440450769296E-003   6.3000000000000000E-003   3.3428294944009914E-003   1.2457314949288506E-020   8.2518862506060186E-006
 abs          25           2   7.4623129669520614E-003   5.9294413529506823E-003   2.9007002777194629E-003   5.1000000000000004E-003   2.3556521306648073E-003   1.5859147302941656E-020   6.6608362872538768E-006
 abs          25           3   9.9652855219121532E-003   4.6146095312584162E-003   2.2506200375641077E-003   8.3000000000000001E-003   1.6600000000000000E-003   1.6838281254592034E-020   5.2855219121528745E-006
 abs          25           4   1.3074096940698087E-002   3.7173062261115562E-003   1.8006346266832634E-003   1.1900000000000001E-002   1.1697822289330642E-003   1.4205408916294208E-020   4.3147117650227553E-006
 abs          25           5   2.2327810340654290E-002   3.0119128364052773E-003   1.4506054484449524E-003   2.1499999999999998E-002   8.2433160429373970E-004   1.0300018791879352E-020   3.4787363605495961E-006
 abs          25           6   4.1283701226171782E-002   2.4059801077283712E-003   1.1505733523828104E-003   4.0700000000000000E-002   5.8089666352451790E-004   6.5494917421915358E-021   2.8045626472647905E-006
 abs          25           7   5.5411635060683674E-002   2.0011260569927206E-003   9.5054709196833057E-004   5.5000000000000000E-002   4.0935096014306667E-004   4.3435336738836669E-021   2.2841005406089211E-006
 abs          25           8   8.5190330858966115E-002   1.6973506841983261E-003   8.0052666720151298E-004   8.4900000000000003E-002   2.8846474612773896E-004   2.6513357612442653E-021   1.8661128383723415E-006
 abs          25           9  0.19970477972993317        1.4935753114039309E-003   7.0050624243469530E-004  0.19950000000000001        2.0327767089994999E-004   2.4057163482733709E-021   1.5020590331985464E-006
 abs          25          10  0.28514445816957801        1.2900696080948499E-003   6.0048727657979306E-004  0.28499999999999998        1.4324735358895504E-004   2.6075918455505369E-021   1.2108159890595106E-006
 abs          25          11  0.35130192630088442        9.8521555735919938E-004   4.5046101616531326E-004  0.35120000000000001        1.0094470395786181E-004   2.7023378860256657E-021   9.8159692654267656E-007
 abs          25          12  0.45597193814566550        7.8305820147668798E-004   3.5044934486998887E-004  0.45590000000000003        7.1134530599286717E-005   7.8348790542610631E-021   8.0361506623548801E-007
 abs          25          13  0.64335077755994063        7.8063117610886268E-004   3.5043621466274892E-004  0.64329999999999998        5.0127656481048711E-005   9.6186292910137476E-022   6.4990345960655242E-007
 abs          26           1   9.6509771341044340E-003   7.7357939950573927E-003   3.8007346455132605E-003   6.3000000000000000E-003   3.3428294944009914E-003   2.1340126825496623E-020   8.1476397034435508E-006
 abs          26           2   7.4622288202293519E-003   5.9278061129951929E-003   2.9006914310713036E-003   5.1000000000000004E-003   2.3556521306648073E-003   2.7167896690044003E-020   6.5766895645443033E-006
 abs          26           3   9.9652187496139712E-003   4.6131616625478267E-003   2.2506122045943835E-003   8.3000000000000001E-003   1.6600000000000000E-003   2.8845272026567403E-020   5.2187496139703787E-006
 abs          26           4   1.3074042432699572E-002   3.7158242899018937E-003   1.8006266094083693E-003   1.1900000000000001E-002   1.1697822289330642E-003   2.4334765951072606E-020   4.2602037665064323E-006
 abs          26           5   2.2327766393580487E-002   3.0104990351937605E-003   1.4505977997803982E-003   2.1499999999999998E-002   8.2433160429373970E-004   1.7644665912516564E-020   3.4347892867458108E-006
 abs          26           6   4.1283665795972750E-002   2.4046412550148143E-003   1.1505661091896302E-003   4.0700000000000000E-002   5.8089666352451790E-004   1.1219661509505764E-020   2.7691324482291807E-006
 abs          26           7   5.5411606205511957E-002   1.9998485257774943E-003   9.5054018052445621E-004   5.5000000000000000E-002   4.0935096014306667E-004   7.4408818627768923E-021   2.2552453688943426E-006
 abs          26           8   8.5190307284256764E-002   1.6961208474818015E-003   8.0052001378487655E-004   8.4900000000000003E-002   2.8846474612773896E-004   4.5419380652716427E-021   1.8425381290140318E-006
 abs          26           9  0.19970476075433619        1.4923931691861081E-003   7.0049984704529679E-004  0.19950000000000001        2.0327767089994999E-004   4.1211162069253781E-021   1.4830834362150514E-006
 abs          26          10  0.28514444287327090        1.2889317536258216E-003   6.0048112078711559E-004  0.28499999999999998        1.4324735358895504E-004   4.4669578546944604E-021   1.1955196819758675E-006
 abs          26          11  0.35130191390031479        9.8413902438850205E-004   4.5045519212194178E-004  0.35120000000000001        1.0094470395786181E-004   4.6293011628006684E-021   9.6919635688021323E-007
 abs          26          12  0.45597192799355080        7.8200892250524889E-004   3.5044366827075338E-004  0.45590000000000003        7.1134530599286717E-005   1.3421566522011217E-020   7.9346295151182281E-007
 abs          26          13  0.64335076934967339        7.7961255788658898E-004   3.5043070393816643E-004  0.64329999999999998        5.0127656481048711E-005   1.6477678895071707E-021   6.4169319233003126E-007
 abs          27           1   9.6503421989535404E-003   7.7252117425083248E-003   3.8006773955269577E-003   6.3000000000000000E-003   3.3428294944018310E-003   1.5423330065776601E-015   7.5127045501669458E-006
 abs          27           2   7.4617163072160271E-003   5.9178463458902063E-003   2.9006375487312542E-003   5.1000000000000004E-003   2.3556521306653993E-003   1.9635410489022963E-015   6.0641765486641674E-006
 abs          27           3   9.9648120591261380E-003   4.6043431187574885E-003   2.2505644962724663E-003   8.3000000000000001E-003   1.6600000000004172E-003   2.0847747810541379E-015   4.8120591236363438E-006
 abs          27           4   1.3073710440464617E-002   3.7067982509634599E-003   1.8005777785377005E-003   1.1900000000000001E-002   1.1697822289333582E-003   1.7587698536634178E-015   3.9282115294990563E-006
 abs          27           5   2.2327498724840879E-002   3.0018879865517218E-003   1.4505512140072327E-003   2.1499999999999998E-002   8.2433160429394678E-004   1.2752543636549081E-015   3.1671205456586143E-006
 abs          27           6   4.1283450001019649E-002   2.3964866956987878E-003   1.1505219930237180E-003   4.0700000000000000E-002   5.8089666352466383E-004   8.1088749877617204E-016   2.5533374941743868E-006
 abs          27           7   5.5411430457122136E-002   1.9920674577283393E-003   9.5049808494629710E-004   5.5000000000000000E-002   4.0935096014316951E-004   5.3778944170789856E-016   2.0794969784285631E-006
 abs          27           8   8.5190163697614660E-002   1.6886302726400620E-003   8.0047948977496938E-004   8.4900000000000003E-002   2.8846474612781144E-004   3.2826562199950430E-016   1.6989514865083419E-006
 abs          27           9  0.19970464517953904        1.4851930875517019E-003   7.0046089460364135E-004  0.19950000000000001        2.0327767090000105E-004   2.9784779170770972E-016   1.3675086387068590E-006
 abs          27          10  0.28514434970794977        1.2820014156838865E-003   6.0044362765883656E-004  0.28499999999999998        1.4324735358899103E-004   3.2284403828659318E-016   1.1023543604656727E-006
 abs          27          11  0.35130183837208118        9.7758217771311165E-004   4.5041971958141482E-004  0.35120000000000001        1.0094470395788717E-004   3.3457931989354103E-016   8.9366812296103532E-007
 abs          27          12  0.45597186615999763        7.7561807194828939E-004   3.5040909376922739E-004  0.45590000000000003        7.1134530599304592E-005   9.7002537611538242E-016   7.3162939736919914E-007
 abs          27          13  0.64335071934334276        7.7340845296274040E-004   3.5039713973051602E-004  0.64329999999999998        5.0127656481061308E-005   1.1909270516468937E-016   5.9168686163079536E-007
 abs          28           1   9.6489502018176684E-003   7.7020046741079866E-003   3.8005518427246983E-003   6.3000000000000000E-003   3.3428296693272992E-003   3.2132018175334952E-010   6.1202111701876847E-006
 abs          28           2   7.4605928334597373E-003   5.8960044032682233E-003   2.9005193813847487E-003   5.1000000000000004E-003   2.3556522539332930E-003   4.0907207721932626E-010   4.9401704543671823E-006
 abs          28           3   9.9639206564543382E-003   4.5850040101195894E-003   2.2504598692932734E-003   8.3000000000000001E-003   1.6600000868658338E-003   4.3432916806618145E-010   3.9201352593359028E-006
 abs          28           4   1.3072982766973471E-002   3.6870040861878960E-003   1.8004706896957356E-003   1.1900000000000001E-002   1.1697822901463827E-003   3.6641130459015724E-010   3.2001104157844104E-006
 abs          28           5   2.2326912002131421E-002   2.9830039764999023E-003   1.4504490490337316E-003   2.1499999999999998E-002   8.2433164743003610E-004   2.6567865836371777E-010   2.5800890227261807E-006
 abs          28           6   4.1282976934627728E-002   2.3786038511076817E-003   1.1504252442503748E-003   4.0700000000000000E-002   5.8089669392215218E-004   1.6893531901008132E-010   2.0800717702598664E-006
 abs          28           7   5.5411045152055020E-002   1.9750037764809302E-003   9.5040576768883663E-004   5.5000000000000000E-002   4.0935098156391755E-004   1.1203974786969295E-010   1.6940584513558722E-006
 abs          28           8   8.5189848877366414E-002   1.6722036869834692E-003   8.0039061915398091E-004   8.4900000000000003E-002   2.8846476122275740E-004   6.8388842671246559E-011   1.3840477548267575E-006
 abs          28           9  0.19970439178202751        1.4694035803008358E-003   7.0037547058429282E-004  0.19950000000000001        2.0327768153722970E-004   6.2051778801132838E-011   1.1140384384949478E-006
 abs          28          10  0.28514414545932965        1.2668034703342526E-003   6.0036140402495921E-004  0.28499999999999998        1.4324736108491936E-004   6.7259343226854294E-011   8.9803098542950021E-007
 abs          28          11  0.35130167280406394        9.6320332764657463E-004   4.5034192727752743E-004  0.35120000000000001        1.0094470924017859E-004   6.9704199695124617E-011   7.2802511959095331E-007
 abs          28          12  0.45597173075697578        7.6160325729728354E-004   3.5033327094007044E-004  0.45590000000000003        7.1134534321672438E-005   2.0208912654923515E-010   5.9602056493984631E-007
 abs          28          13  0.64335060970054658        7.5980315232704863E-004   3.5032353247129247E-004  0.64329999999999998        5.0127659104169595E-005   2.4811042436763241E-011   4.8201663137752680E-007
 abs          29           1   9.6472984870656087E-003   7.6744494071964743E-003   3.8004027591216722E-003   6.3000000000000000E-003   3.3428303253471006E-003   1.5263649671117600E-009   4.4666353535398365E-006
 abs          29           2   7.4592600807722930E-003   5.8700700498229581E-003   2.9003790673934470E-003   5.1000000000000004E-003   2.3556527162226335E-003   1.9432021944361189E-009   3.6054213474651616E-006
 abs          29           3   9.9628634579356327E-003   4.5620417190922998E-003   2.2503356342926210E-003   8.3000000000000001E-003   1.6600004126356262E-003   2.0631781293916430E-009   2.8609821218751892E-006
 abs          29           4   1.3072119755881007E-002   3.6635014373792973E-003   1.8003435313254741E-003   1.1900000000000001E-002   1.1697825197124754E-003   1.7405588362162861E-009   2.3354956096940321E-006
 abs          29           5   2.2326216064584157E-002   2.9605822024562868E-003   1.4503277379386958E-003   2.1499999999999998E-002   8.2433180920252745E-004   1.2620463146859963E-009   1.8829933353158134E-006
 abs          29           6   4.1282415682560289E-002   2.3573710215583749E-003   1.1503103649512984E-003   4.0700000000000000E-002   5.8089680792130008E-004   8.0249268957287627E-010   1.5180721463011209E-006
 abs          29           7   5.5410587947101242E-002   1.9547438245861699E-003   9.5029615106601679E-004   5.5000000000000000E-002   4.0935106189775929E-004   5.3221509774433620E-010   1.2363529883817784E-006
 abs          29           8   8.5189475244549479E-002   1.6527002997482549E-003   8.0028509535589730E-004   8.4900000000000003E-002   2.8846481783305887E-004   3.2486522872714795E-010   1.0101018511926690E-006
 abs          29           9  0.19970409106060397        1.4506566932712391E-003   7.0027403948029585E-004  0.19950000000000001        2.0327772142983492E-004   2.9476500121333754E-010   8.1304440912473485E-007
 abs          29          10  0.28514390310715387        1.2487590068817409E-003   6.0026377316596481E-004  0.28499999999999998        1.4324738919676313E-004   3.1950171867489589E-010   6.5539845547038780E-007
 abs          29          11  0.35130147638541531        9.4613148658885212E-004   4.5024955839759650E-004  0.35120000000000001        1.0094472905026008E-004   3.3111384945914914E-010   5.3132525120539227E-007
 abs          29          12  0.45597157049432369        7.4496366686341775E-004   3.5024324069775928E-004  0.45590000000000003        7.1134548281600921E-005   9.5998476122351979E-010   4.3498605730551345E-007
 abs          29          13  0.64335047957082581        7.4364974698301514E-004   3.5023613286200528E-004  0.64329999999999998        5.0127668941564925E-005   1.1785800287311438E-010   3.5178402621016358E-007
 abs          30           1   9.6448224861027873E-003   7.6332072530594366E-003   3.8001796478995074E-003   6.3000000000000000E-003   3.3428297223945832E-003   4.1881346724064885E-010   1.9923448947373269E-006
 abs          30           2   7.4572610244682284E-003   5.8312538905979433E-003   2.9001690803718743E-003   5.1000000000000004E-003   2.3556522913291762E-003   5.3317499981713350E-010   1.6081999640526787E-006
 abs          30           3   9.9612768217911991E-003   4.5276728608208312E-003   2.2501497070469773E-003   8.3000000000000001E-003   1.6600001132182672E-003   5.6609133534597057E-010   1.2761424815964577E-006
 abs          30           4   1.3070824535263708E-002   3.6283239631257533E-003   1.8001532294986185E-003   1.1900000000000001E-002   1.1697823087166285E-003   4.7758251242296766E-010   1.0417489645685368E-006
 abs          30           5   2.2325171916900435E-002   2.9270218138559489E-003   1.4501461847816442E-003   2.1499999999999998E-002   8.2433166051626731E-004   3.4628148519279152E-010   8.3991010268338291E-007
 abs          30           6   4.1281574060164319E-002   2.3255894435057897E-003   1.1501384355211636E-003   4.0700000000000000E-002   5.8089670314386346E-004   2.2019348925407151E-010   6.7713682696954897E-007
 abs          30           7   5.5409902609944550E-002   1.9244175405846978E-003   9.5013209532062457E-004   5.5000000000000000E-002   4.0935098806234760E-004   1.4602408027462012E-010   5.5147585811846923E-007
 abs          30           8   8.5188915411365515E-002   1.6235060195409689E-003   8.0012716392568474E-004   8.4900000000000003E-002   2.8846476580212369E-004   8.9136210821287220E-011   4.5055642717589220E-007
 abs          30           9  0.19970364042450311        1.4225944760908019E-003   7.0012223248531503E-004  0.19950000000000001        2.0327768476425458E-004   8.0880577472037479E-011   3.6265885829042190E-007
 abs          30          10  0.28514353979182916        1.2217480286653255E-003   6.0011765325111645E-004  0.28499999999999998        1.4324736335896536E-004   8.7667039906137092E-011   2.9234080318204568E-007
 abs          30          11  0.35130118179958320        9.2057603701488681E-004   4.5011131280822285E-004  0.35120000000000001        1.0094471084267173E-004   9.0851119036100315E-011   2.3699788943934213E-007
 abs          30          12  0.45597132882460500        7.2005514280565840E-004   3.5010849482674633E-004  0.45590000000000003        7.1134535450930258E-005   2.6340942595130692E-010   1.9402574465088997E-007
 abs          30          13  0.64335028460567412        7.1946910315328282E-004   3.5010532448139853E-004  0.64329999999999998        5.0127659899944133E-005   3.2336399860967319E-011   1.5691343778813586E-007
 abs          31           1   9.6448121725086905E-003   7.6330353621523600E-003   3.8001787179704856E-003   6.3000000000000000E-003   3.3428297223416421E-003   4.1870791470836679E-010   1.9820314591335120E-006
 abs          31           2   7.4572526994080507E-003   5.8310921109128479E-003   2.9001682051445366E-003   5.1000000000000004E-003   2.3556522912918693E-003   5.3304949547098812E-010   1.5998750666862008E-006
 abs          31           3   9.9612702156420280E-003   4.5275296183566720E-003   2.2501489321060052E-003   8.3000000000000001E-003   1.6600001131919775E-003   5.6595988580263277E-010   1.2695364901639490E-006
 abs          31           4   1.3070819142480684E-002   3.6281773502543501E-003   1.8001524363237516E-003   1.1900000000000001E-002   1.1697823086981025E-003   4.7746407807600230E-010   1.0363563185011829E-006
 abs          31           5   2.2325167568983770E-002   2.9268819417783230E-003   1.4501454280745061E-003   2.1499999999999998E-002   8.2433166050321222E-004   3.4619876617166094E-010   8.3556228179157872E-007
 abs          31           6   4.1281570554879285E-002   2.3254569862921379E-003   1.1501377189285012E-003   4.0700000000000000E-002   5.8089670313466368E-004   2.2013759530865719E-010   6.7363160702576884E-007
 abs          31           7   5.5409899755175039E-002   1.9242911500665478E-003   9.5013141154886357E-004   5.5000000000000000E-002   4.0935098805586461E-004   1.4599307338489364E-010   5.4862112610656374E-007
 abs          31           8   8.5188913079020656E-002   1.6233843475717163E-003   8.0012650568131471E-004   8.4900000000000003E-002   2.8846476579755519E-004   8.9115349041590598E-011   4.4822410775176159E-007
 abs          31           9  0.19970363854716383        1.4224775226800966E-003   7.0012159976836383E-004  0.19950000000000001        2.0327768476103523E-004   8.0859411685062073E-011   3.6078154337822426E-007
 abs          31          10  0.28514353827849337        1.2216354567820555E-003   6.0011704423822241E-004  0.28499999999999998        1.4324736335669672E-004   8.7644820581783264E-011   2.9082749187939445E-007
 abs          31          11  0.35130118057273313        9.2046953185957357E-004   4.5011073661632435E-004  0.35120000000000001        1.0094471084107304E-004   9.0829567498195955E-011   2.3577106245901908E-007
 abs          31          12  0.45597132782015526        7.1995133397346730E-004   3.5010793322195571E-004  0.45590000000000003        7.1134535449803691E-005   2.6334106097972276E-010   1.9302136432084530E-007
 abs          31          13  0.64335028379339942        7.1936832769498612E-004   3.5010477928713445E-004  0.64329999999999998        5.0127659899150253E-005   3.2329775197847914E-011   1.5610117047424066E-007
 abs          32           1   9.6432962315298448E-003   7.6077789514931307E-003   3.8000420841273570E-003   6.3000000000000000E-003   3.3428294944158636E-003   2.9673589820341307E-014   4.6673708430613345E-007
 abs          32           2   7.4560288760040913E-003   5.8073213661134025E-003   2.9000396085904598E-003   5.1000000000000004E-003   2.3556521306752876E-003   3.5261576807960755E-014   3.7674529354122531E-007
 abs          32           3   9.9602989558238032E-003   4.5064824595893111E-003   2.2500350701061644E-003   8.3000000000000001E-003   1.6600000000073856E-003   3.6927365131272054E-014   2.9895577949020313E-007
 abs          32           4   1.3070026274505838E-002   3.6066349880492080E-003   1.8000358952851305E-003   1.1900000000000001E-002   1.1697822289382686E-003   3.3290439910226795E-014   2.4404553427771687E-007
 abs          32           5   2.2324528366032662E-002   2.9063299311352531E-003   1.4500342449272161E-003   2.1499999999999998E-002   8.2433160429740723E-004   2.3243714149265295E-014   1.9676171201140920E-007
 abs          32           6   4.1281055293140100E-002   2.3059943685325088E-003   1.1500324295335182E-003   4.0700000000000000E-002   5.8089666352710231E-004   1.5714200982377098E-014   1.5862959728051596E-007
 abs          32           7   5.5409480151758297E-002   1.9057198173152881E-003   9.5003094421141070E-004   5.5000000000000000E-002   4.0935096014488791E-004   8.7031368525685408E-015   1.2919160470826635E-007
 abs          32           8   8.5188570295828450E-002   1.6055062774774421E-003   8.0002978896087629E-004   8.4900000000000003E-002   2.8846474612902233E-004   5.8610008091040877E-015   1.0554969357511254E-007
 abs          32           9  0.19970336262925845        1.4052927376368737E-003   7.0002863371033388E-004  0.19950000000000001        2.0327767090085437E-004   5.9521085651636475E-015   8.4958351620430168E-008
 abs          32          10  0.28514331583887392        1.2050944506395785E-003   6.0002756097768037E-004  0.28499999999999998        1.4324735358959236E-004   6.2467311818404048E-015   6.8485278056684289E-008
 abs          32          11  0.35130100022432342        9.0481989941320977E-004   4.5002607565554646E-004  0.35120000000000001        1.0094470395831092E-004   6.0555194680427867E-015   5.5520359048180580E-008
 abs          32          12  0.45597117998409958        7.0469787664605762E-004   3.5002541551237620E-004  0.45590000000000003        7.1134530599603195E-005   1.9223871790072598E-014   4.5453480759224758E-008
 abs          32          13  0.64335016441584170        7.0456060103008835E-004   3.5002467285130115E-004  0.64329999999999998        5.0127656481271731E-005   1.8587579023497321E-015   3.6759358600581095E-008
 abs          33           1   9.6430005452711812E-003   7.6028508478364898E-003   3.8000154230867955E-003   6.3000000000000000E-003   3.3428294944009922E-003   8.0103471660385505E-019   1.7105087018924031E-007
 abs          33           2   7.4557902011384587E-003   5.8026831509049312E-003   2.9000145158463954E-003   5.1000000000000004E-003   2.3556521306648077E-003   9.5230568377320591E-019   1.3807047364948481E-007
 abs          33           3   9.9601095619952871E-003   4.5023757065304083E-003   2.2500128525723292E-003   8.3000000000000001E-003   1.6600000000000005E-003   9.9738577713791466E-019   1.0956199528461144E-007
 abs          33           4   1.3069871667296565E-002   3.6024316055075943E-003   1.8000131549857959E-003   1.1900000000000001E-002   1.1697822289330644E-003   8.9876334617441446E-019   8.9438363497641998E-008
 abs          33           5   2.2324403713974310E-002   2.9023198075532226E-003   1.4500125501588628E-003   2.1499999999999998E-002   8.2433160429373992E-004   6.2767869705267256E-019   7.2109680569973863E-008
 abs          33           6   4.1280954798460792E-002   2.3021968298034133E-003   1.1500118848492365E-003   4.0700000000000000E-002   5.8089666352451801E-004   4.2418374488704177E-019   5.8134936273467297E-008
 abs          33           7   5.5409398306576742E-002   1.9020962116444789E-003   9.5001134050499666E-004   5.5000000000000000E-002   4.0935096014306678E-004   2.3521704688053141E-019   4.7346433676564233E-008
 abs          33           8   8.5188503428219958E-002   1.6020179530764186E-003   8.0001091712614345E-004   8.4900000000000003E-002   2.8846474612773901E-004   1.5829357711230659E-019   3.8682092212730166E-008
 abs          33           9  0.19970330880663026        1.4019396945083582E-003   7.0001049374729017E-004  0.19950000000000001        2.0327767089995004E-004   1.6063903957281270E-019   3.1135730292616619E-008
 abs          33          10  0.28514327245222970        1.2018670258380163E-003   6.0001010060978363E-004  0.28499999999999998        1.4324735358895506E-004   1.6862373395192048E-019   2.5098640756525786E-008
 abs          33          11  0.35130096505118558        9.0176640767908149E-004   4.5000955626554379E-004  0.35120000000000001        1.0094470395786184E-004   1.6353227278895615E-019   2.0347227695713552E-008
 abs          33          12  0.45597115118849446        7.0172168849733259E-004   3.5000931433477054E-004  0.45590000000000003        7.1134530599286730E-005   5.1885136237862586E-019   1.6657895201435819E-008
 abs          33          13  0.64335014112813449        7.0167137941786514E-004   3.5000904216265062E-004  0.64329999999999998        5.0127656481048724E-005   5.0249819640282126E-020   1.3471653501832326E-008
 abs          34           1   9.6429022867858625E-003   7.6012132064145208E-003   3.8000065634467024E-003   6.3000000000000000E-003   3.3428294944009914E-003   1.2457157711290526E-020   7.2792384871270501E-008
 abs          34           2   7.4557108879166481E-003   5.8011418413313138E-003   2.9000061773616021E-003   5.1000000000000004E-003   2.3556521306648073E-003   1.5858948072843861E-020   5.8757251840535330E-008
 abs          34           3   9.9600466251876952E-003   4.5010110053454342E-003   2.2500054695389188E-003   8.3000000000000001E-003   1.6600000000000000E-003   1.6838069916589998E-020   4.6625187695323588E-008
 abs          34           4   1.3069820290310777E-002   3.6010347937065032E-003   1.8000055982339521E-003   1.1900000000000001E-002   1.1697822289330642E-003   1.4205229819520418E-020   3.8061377710468237E-008
 abs          34           5   2.2324362291279518E-002   2.9009872169843652E-003   1.4500053408438853E-003   2.1499999999999998E-002   8.2433160429373970E-004   1.0299889269270575E-020   3.0686985779065012E-008
 abs          34           6   4.1280921403420032E-002   2.3009348825900134E-003   1.1500050577148120E-003   4.0700000000000000E-002   5.8089666352451790E-004   6.5494090308510354E-021   2.4739895511804354E-008
 abs          34           7   5.5409371108884893E-002   1.9008920635400892E-003   9.5000482606375186E-004   5.5000000000000000E-002   4.0935096014306667E-004   4.3434794671602173E-021   2.0148741825479123E-008
 abs          34           8   8.5188481207673611E-002   1.6008587598345925E-003   8.0000464589070517E-004   8.4900000000000003E-002   2.8846474612773896E-004   2.6513024666265377E-021   1.6461545859777510E-008
 abs          34           9  0.19970329092101707        1.4008254561290957E-003   7.0000446571765840E-004  0.19950000000000001        2.0327767089994999E-004   2.4056858995813863E-021   1.3250117115456754E-008
 abs          34          10  0.28514325803456303        1.2007945312597060E-003   6.0000429841411494E-004  0.28499999999999998        1.4324735358895504E-004   2.6075589188247138E-021   1.0680974120000148E-008
 abs          34          11  0.35130095336292133        9.0075171220978169E-004   4.5000406676305493E-004  0.35120000000000001        1.0094470395786181E-004   2.7023039202625500E-021   8.6589634291315226E-009
 abs          34          12  0.45597114161953090        7.0073268152092652E-004   3.5000396380702821E-004  0.45590000000000003        7.1134530599286717E-005   7.8347799502489344E-021   7.0889315985747078E-009
 abs          34          13  0.64335013338947600        7.0071127199596440E-004   3.5000384798149816E-004  0.64329999999999998        5.0127656481048711E-005   9.6185095101537974E-022   5.7329950176392775E-009
 abs          35           1   9.6428654760283439E-003   7.6005996937892270E-003   3.8000032443433998E-003   6.3000000000000000E-003   3.3428294944009914E-003   1.2456925904829136E-020   3.5981627353622869E-008
 abs          35           2   7.4556811746581287E-003   5.8005644176839779E-003   2.9000030534996699E-003   5.1000000000000004E-003   2.3556521306648073E-003   1.5858672799768422E-020   2.9043993321388394E-008
 abs          35           3   9.9600230470554291E-003   4.5004997448243557E-003   2.2500027036194995E-003   8.3000000000000001E-003   1.6600000000000000E-003   1.6837781679884070E-020   2.3047055429117918E-008
 abs          35           4   1.3069801042855865E-002   3.6005115035261052E-003   1.8000027672340762E-003   1.1900000000000001E-002   1.1697822289330642E-003   1.4204969799141218E-020   1.8813922799279933E-008
 abs          35           5   2.2324346773018998E-002   2.9004879861226061E-003   1.4500026400049231E-003   2.1499999999999998E-002   8.2433160429373970E-004   1.0299707787722033E-020   1.5168725256919446E-008
 abs          35           6   4.1280908892574339E-002   2.3004621169787575E-003   1.1500025000528550E-003   4.0700000000000000E-002   5.8089666352451790E-004   6.5492862650596493E-021   1.2229049819531955E-008
 abs          35           7   5.5409360919763444E-002   1.9004409513156081E-003   9.5000238554661745E-004   5.5000000000000000E-002   4.0935096014306667E-004   4.3434116008722847E-021   9.9596203818688140E-009
 abs          35           8   8.5188472883149360E-002   1.6004244891331589E-003   8.0000229648621044E-004   8.4900000000000003E-002   2.8846474612773896E-004   2.6512567148267375E-021   8.1370216106885704E-009
 abs          35           9  0.19970328422049682        1.4004080269507094E-003   7.0000220742580334E-004  0.19950000000000001        2.0327767089994999E-004   2.4056393860406265E-021   6.5495968744993258E-009
 abs          35          10  0.28514325263324602        1.2003927406384349E-003   6.0000212472685393E-004  0.28499999999999998        1.4324735358895504E-004   2.6075101175052617E-021   5.2796570855479311E-009
 abs          35          11  0.35130094898412534        9.0037157497528577E-004   4.5000201022061631E-004  0.35120000000000001        1.0094470395786181E-004   2.7022566435045158E-021   4.2801674368361846E-009
 abs          35          12  0.45597113803469241        7.0036216801388617E-004   3.5000195932895510E-004  0.45590000000000003        7.1134530599286717E-005   7.8346297342091902E-021   3.5040931213658872E-009
 abs          35          13  0.64335013049032819        7.0035158518231156E-004   3.5000190207583630E-004  0.64329999999999998        5.0127656481048711E-005   9.6183646261254059E-022   2.8338471216415396E-009
 ed   5.1506203949451450        6.6283149639765426        8.0778097848097481        8.5123907347520191        8.5209681411584217        8.3567232926686614        8.4534089187781021        8.3230028092861179        7.8937452296415973        7.8298133989175156        7.3998654981454210        6.7475371559460964        3.3254480908314390     
 es   3.8708240101734797        4.4514794925848644        5.0450981140136717        4.9428132792313892        4.6598944703737892        4.3338216374317806        4.2095542867978413        4.0404048144817351        3.7294194191694259        3.6340814918279651        3.4198225726683935        3.0610342999299367        1.5060487175981203     
 PAR   39.582411874323483        52.378973813531545        61.994901452496222        63.761977876401879        60.018161714410333        52.957885596268845        50.526914043679717        42.907031842396563        21.044978404562222        12.922303060804838        8.5205644953100776        4.2723150273355728       0.70644835148118024     
 chl2c           1   3.7477407714772232E-002   3.7477407714772232E-002  0.60826437499999997        4.3797897578871345E-004   1.4249884295064568E-016
 chl           1   3.1123644303601635E-005   8.3046417032023865E-004   3.7477407714772232E-002
 chl2c           2   3.2640259920490348E-002   3.2640259920490348E-002  0.48302390000000001        2.4756690951478543E-004   1.7899099214268391E-006
 chl           2   2.7803485489850115E-005   8.5181568889395134E-004   3.2640259920490348E-002
 chl2c           3   3.7922212503796585E-002   3.7922212503796585E-002  0.75128689999999998        4.3797897578871345E-004   1.5365976756619772E-016
 chl           3   3.1493038743677041E-005   8.3046417032033959E-004   3.7922212503796585E-002
 chl2c           4   3.7976509103863923E-002   3.7976509103863923E-002  0.77318742499999993        4.3797897578871345E-004   2.2360058782737816E-006
 chl           4   3.2304958673426303E-005   8.5065635140591238E-004   3.7976509103863923E-002
 chl2c           5   2.5710500362372445E-002   2.5710500362372445E-002  0.48489679999999996        3.3549884599266572E-004   2.8202240706341287E-006
 chl           5   2.2118633493221016E-005   8.6029572281649716E-004   2.5710500362372445E-002
 chl2c           6   3.1261039902252048E-002   3.1261039902252048E-002  0.29222855000000003        2.4756690951478543E-004   1.0242196299478778E-016
 chl           6   2.6124675763189817E-005   8.3569439292094036E-004   3.1261039902252048E-002
 chl2c           7   4.3064391842467263E-002   4.3064391842467263E-002  0.22770740000000000        1.5469273631052430E-004   1.3127078361050638E-006
 chl           7   3.6496624938299925E-005   8.4748961675361128E-004   4.3064391842467263E-002
 chl2c           8   4.7969800906495587E-002   4.7969800906495587E-002  0.49578364999999996        1.5469273631052430E-004   7.3703686696808336E-017
 chl           8   4.0088093647079735E-005   8.3569439292068047E-004   4.7969800906495587E-002
 chl2c           9   2.4803669054600401E-002   2.4803669054600401E-002  0.28700202499999999        3.3549884599266572E-004   1.3658574058529446E-016
 chl           9   2.0728291165069860E-005   8.3569455468223688E-004   2.4803669054600401E-002
 chl2c          10   2.5387016219684602E-002   2.5387016219684602E-002  0.39094662499999999        3.3549884599266572E-004   3.4247514589231280E-006
 chl          10   2.1946586155157929E-005   8.6448072373865542E-004   2.5387016219684602E-002
 chl2c          11   2.1820572217820047E-002   2.1820572217820047E-002  0.49737575000000001        4.3797897578871345E-004   1.4149558600339837E-016
 chl          11   1.8235329852766416E-005   8.3569439292129576E-004   2.1820572217820047E-002
 chl2c          12   4.5290941298723353E-002   4.5290941298723353E-002  0.30768942500000002        1.5469273631052430E-004   7.3077039980962986E-017
 chl          12   3.7849385693442539E-005   8.3569439292067494E-004   4.5290941298723353E-002
 chl2c          13   3.7935816987997487E-002   3.7935816987997487E-002  0.75666275000000005        4.3797897578871345E-004   1.2780868288725792E-016
 chl          13   3.1504336773024956E-005   8.3046417012694405E-004   3.7935816987997487E-002
 chl2c          14   4.6856526101924839E-002   4.6856526101924839E-002  0.39804095000000000        1.5469273631052430E-004   8.1147771939730590E-017
 chl          14   3.9157736135123268E-005   8.3569439292074813E-004   4.6856526101924839E-002
 chl2c          15   2.0954299823745293E-002   2.0954299823745293E-002  0.25607262500000000        4.3797897578871345E-004   3.9270659238237694E-006
 chl          15   1.8193866848146320E-005   8.6826412722839513E-004   2.0954299823745293E-002
 chl2c          16   3.7823443882273475E-002   3.7823443882273475E-002  0.71433214999999994        4.3797897578871345E-004   1.5995719447227745E-016
 chl          16   3.1411014942352316E-005   8.3046417032039640E-004   3.7823443882273475E-002
 chl2c          17   3.7542254757581245E-002   3.7542254757581245E-002  0.62580860000000005        4.3797897578871345E-004   1.5987723387064442E-016
 chl          17   3.1177497449211634E-005   8.3046417032039564E-004   3.7542254757581245E-002
 chl2c          18   2.5694475239060960E-002   2.5694475239060960E-002  0.47925950000000000        3.3549884599266572E-004   1.4770183151880009E-016
 chl          18   2.1472728886339760E-005   8.3569439292135203E-004   2.5694475239060960E-002
 chl2c          19   3.7570220750293731E-002   3.7570220750293731E-002  0.63367130000000005        4.3797897578871345E-004   7.9961780302833763E-007
 chl          19   3.1468833001507356E-005   8.3760042855913553E-004   3.7570220750293731E-002
 chl2c          20   3.7020645196759419E-002   3.7020645196759419E-002  0.50678202500000002        4.3797897578871345E-004   1.4072063085859962E-016
 chl          20   3.0744319390895156E-005   8.3046417012706049E-004   3.7020645196759419E-002
 chl2c          21   3.7838475073783531E-002   3.7838475073783531E-002  0.71973185000000006        4.3797897578871345E-004   2.5959909716729911E-008
 chl          21   3.1429942651829810E-005   8.3063449545846301E-004   3.7838475073783531E-002
 chl2c          22   3.7613353106285476E-002   3.7613353106285476E-002  0.64616892500000001        4.3797897578871345E-004   3.4929214645888963E-006
 chl          22   3.2424605683531053E-005   8.6205038917715258E-004   3.7613353106285476E-002
 chl2c          23   3.2286562315070731E-002   3.2286562315070731E-002  0.41564179999999995        2.4756690951478543E-004   9.6607372036302714E-017
 chl          23   2.6981699093395445E-005   8.3569439292088767E-004   3.2286562315070731E-002
 chl2c          24   3.7348402796863071E-002   3.7348402796863071E-002  0.57597492500000003        4.3797897578871345E-004   1.1426255650086538E-016
 chl          24   3.1016510334259168E-005   8.3046417012682197E-004   3.7348402796863071E-002
 chl2c          25   4.5426679235459781E-002   4.5426679235459781E-002  0.31406487500000002        1.5469273631052430E-004   7.6787643121650735E-017
 chl          25   3.7962821126081314E-005   8.3569439292070845E-004   4.5426679235459781E-002
 chl2c          26   4.7955660680174553E-002   4.7955660680174553E-002  0.49427735000000000        1.5469273631052430E-004   7.0596860765222961E-017
 chl          26   4.0076276739227265E-005   8.3569439292065228E-004   4.7955660680174553E-002
 chl2c          27   4.5333133499525620E-002   4.5333133499525620E-002  0.30964730000000001        1.5469273631052430E-004   8.0532109762637893E-017
 chl          27   3.7884645479081038E-005   8.3569439292074249E-004   4.5333133499525620E-002
 chl2c          28   3.1209236063453518E-002   3.1209236063453518E-002  0.28776342500000002        2.4756690951478543E-004   8.0093105616707106E-017
 chl          28   2.6081383585567809E-005   8.3569439292073859E-004   3.1209236063453518E-002
 chl2c          29   3.7743217595736761E-002   3.7743217595736761E-002  0.68676297499999994        4.3797897578871345E-004   3.3971095793502178E-006
 chl          29   3.2507020103987857E-005   8.6126785617926885E-004   3.7743217595736761E-002
 chl2c          30   2.5380056985171612E-002   2.5380056985171612E-002  0.38930277499999999        3.3549884599266572E-004   1.6191981972074145E-016
 chl          30   2.1209971314535577E-005   8.3569439292148072E-004   2.5380056985171612E-002
 chl2c          31   3.7576959810037038E-002   3.7576959810037038E-002  0.63559385000000002        4.3797897578871345E-004   3.6221980400872498E-006
 chl          31   3.2438091883341305E-005   8.6324418067149989E-004   3.7576959810037038E-002
 chl2c          32   2.0893126428578448E-002   2.0893126428578448E-002  0.24722667500000001        4.3797897578871345E-004   3.3727087111764351E-006
 chl          32   1.8061420545384553E-005   8.6446710630532658E-004   2.0893126428578448E-002
 chl2c          33   3.7458922634011876E-002   3.7458922634011876E-002  0.60343137499999999        4.3797897578871345E-004   1.1132249232573037E-006
 chl          33   3.1482045936836123E-005   8.4044184197254836E-004   3.7458922634011876E-002
 chl2c          34   2.5350269098008315E-002   2.5350269098008315E-002  0.38241020000000003        3.3549884599266572E-004   2.7346603086891992E-006
 chl          34   2.1791303755982517E-005   8.5960838016092638E-004   2.5350269098008315E-002
 chl2c          35   2.5740370148566064E-002   2.5740370148566064E-002  0.49574644999999995        3.3549884599266572E-004   1.1691282202814378E-016
 chl          35   2.1511083004869635E-005   8.3569439292107328E-004   2.5740370148566064E-002
 chl2c          36   3.7770393924465726E-002   3.7770393924465726E-002  0.69587337500000002        4.3797897578871345E-004   1.2175386642910340E-016
 chl          36   3.1366958853142946E-005   8.3046417032005162E-004   3.7770393924465726E-002
 chl2c          37   2.1353674699533250E-002   2.1353674699533250E-002  0.33194060000000003        4.3797897578871345E-004   1.0704476457429372E-016
 chl          37   1.7845146214658612E-005   8.3569439292098383E-004   2.1353674699533250E-002
 chl2c          38   2.1543295686358745E-002   2.1543295686358745E-002  0.38455722500000000        4.3797897578871345E-004   1.6527966047947679E-016
 chl          38   1.8003611410140185E-005   8.3569439292151141E-004   2.1543295686358745E-002
 chl2c          39   2.5670077108751441E-002   2.5670077108751441E-002  0.47091117500000002        3.3549884599266572E-004   1.3304136873467153E-016
 chl          39   2.1452339505638925E-005   8.3569439292121932E-004   2.5670077108751441E-002
 chl2c          40   3.7687445774703773E-002   3.7687445774703773E-002  0.66875547499999999        4.3797897578871345E-004   1.6026592360984538E-016
 chl          40   3.1298073386784406E-005   8.3046417032039922E-004   3.7687445774703773E-002
 chl2c          41   2.5582381488167241E-002   2.5582381488167241E-002  0.44304987499999998        3.3549884599266572E-004   9.6389927273176137E-017
 chl          41   2.1379052767224472E-005   8.3569439292088745E-004   2.5582381488167241E-002
 chl2c          42   3.7949995630725070E-002   3.7949995630725070E-002  0.76234377499999995        4.3797897578871345E-004   1.3519117181908230E-016
 chl          42   3.1516111627793768E-005   8.3046417012701051E-004   3.7949995630725070E-002
 chl2c          43   2.1185090152268007E-002   2.1185090152268007E-002  0.29539925000000000        4.3797897578871345E-004   1.6457149094099538E-016
 chl          43   1.7704261053786964E-005   8.3569439292150490E-004   2.1185090152268007E-002
 chl2c          44   3.7536352708156646E-002   3.7536352708156646E-002  0.62417262500000004        4.3797897578871345E-004   1.1549739408304313E-016
 chl          44   3.1172596001367419E-005   8.3046417012683324E-004   3.7536352708156646E-002
 chl2c          45   4.6544927192009838E-002   4.6544927192009838E-002  0.37662252499999999        1.5469273631052430E-004   1.8743451299751616E-006
 chl          45   3.9677870439782528E-005   8.5246390602570013E-004   4.6544927192009838E-002
 chl2c          46   3.7083195475449568E-002   3.7083195475449568E-002  0.51876034999999998        4.3797897578871345E-004   3.6415647773333731E-006
 chl          46   3.2017033260131549E-005   8.6338388182668883E-004   3.7083195475449568E-002
 chl2c          47   3.7519784612651236E-002   3.7519784612651236E-002  0.61962282499999999        4.3797897578871345E-004   1.4749087528542358E-016
 chl          47   3.1158836791693760E-005   8.3046417012712175E-004   3.7519784612651236E-002
 chl2c          48   3.7823212136301673E-002   3.7823212136301673E-002  0.71424949999999998        4.3797897578871345E-004   1.4184576075817626E-016
 chl          48   3.1410822478313916E-005   8.3046417012707058E-004   3.7823212136301673E-002
 chl2c          49   3.7152990741888416E-002   3.7152990741888416E-002  0.53276120000000005        4.3797897578871345E-004   1.3200691458946137E-016
 chl          49   3.0854227624197811E-005   8.3046417012698200E-004   3.7152990741888416E-002
 chl2c          50   2.1533072915600981E-002   2.1533072915600981E-002  0.38132569999999999        4.3797897578871345E-004   1.3910720400633893E-006
 chl          50   1.8264237196041400E-005   8.4819464772297923E-004   2.1533072915600981E-002
 chl2c          51   2.0700971146093840E-002   2.0700971146093840E-002  0.22275920000000002        4.3797897578871345E-004   1.7566398409468538E-016
 chl          51   1.7299685514822558E-005   8.3569439292160530E-004   2.0700971146093840E-002
 chl2c          52   3.7581825176985564E-002   3.7581825176985564E-002  0.63698869999999996        4.3797897578871345E-004   1.5696508267489777E-016
 chl          52   3.1210359264730488E-005   8.3046417032036951E-004   3.7581825176985564E-002
 chl2c          53   3.7925801262726190E-002   3.7925801262726190E-002  0.75269794999999995        4.3797897578871345E-004   1.4056961201458505E-016
 chl          53   3.1496019079379506E-005   8.3046417032022130E-004   3.7925801262726190E-002
 chl2c          54   3.7082433371327092E-002   3.7082433371327092E-002  0.51861124999999997        4.3797897578871345E-004   1.1531187417226282E-016
 chl          54   3.0795632256002679E-005   8.3046417012683151E-004   3.7082433371327092E-002
 chl2c          55   3.7357235588660491E-002   3.7357235588660491E-002  0.57808280000000001        4.3797897578871345E-004   3.5725666222956883E-006
 chl          55   3.2229974950781795E-005   8.6275053394381691E-004   3.7357235588660491E-002
 chl2c          56   3.7507394187257688E-002   3.7507394187257688E-002  0.61626080000000005        4.3797897578871345E-004   1.5737983342108690E-016
 chl          56   3.1148546994600141E-005   8.3046417032037320E-004   3.7507394187257688E-002
 chl2c          57   3.7727617852646313E-002   3.7727617852646313E-002  0.68163462500000005        4.3797897578871345E-004   3.7828934236639106E-006
 chl          57   3.2621681166208316E-005   8.6466315720275851E-004   3.7727617852646313E-002
 chl2c          58   3.7765358178394853E-002   3.7765358178394853E-002  0.69416802499999997        4.3797897578871345E-004   5.1954388011809132E-007
 chl          58   3.1535976446135098E-005   8.3505037333861398E-004   3.7765358178394853E-002
 chl2c          59   3.7173699120809672E-002   3.7173699120809672E-002  0.53705127500000005        4.3797897578871345E-004   1.6009032481840333E-016
 chl          59   3.0871425190922743E-005   8.3046417012723537E-004   3.7173699120809672E-002
 chl2c          60   3.7607757740906807E-002   3.7607757740906807E-002  0.64452155000000000        4.3797897578871345E-004   1.2512887983358537E-007
 chl          60   3.1271973604908960E-005   8.3152986201285076E-004   3.7607757740906807E-002
 chl2c          61   3.7805373434125003E-002   3.7805373434125003E-002  0.70794139999999994        4.3797897578871345E-004   1.3757540849722165E-016
 chl          61   3.1396008075313166E-005   8.3046417012703209E-004   3.7805373434125003E-002
 chl2c          62   3.7956103087269030E-002   3.7956103087269030E-002  0.76481592499999995        4.3797897578871345E-004   1.1228226421693210E-016
 chl          62   3.1521183651616299E-005   8.3046417012680408E-004   3.7956103087269030E-002
 chl2c          63   3.7855601011927406E-002   3.7855601011927406E-002  0.72597904999999996        4.3797897578871345E-004   1.5822287320913821E-006
 chl          63   3.1977636119448602E-005   8.4472667887040560E-004   3.7855601011927406E-002
 chl2c          64   2.5708982294816416E-002   2.5708982294816416E-002  0.48435739999999999        3.3549884599266572E-004   9.3782423943612720E-017
 chl          64   2.1484852351479839E-005   8.3569439292086370E-004   2.5708982294816416E-002
 chl2c          65   3.7953597170552002E-002   3.7953597170552002E-002  0.76379975000000000        4.3797897578871345E-004   1.2406094472437120E-016
 chl          65   3.1519102584904710E-005   8.3046417032007233E-004   3.7953597170552002E-002
 chl2c          66   3.1840477731474713E-002   3.1840477731474713E-002  0.35213202499999996        2.4756690951478543E-004   7.6395078826211450E-017
 chl          66   2.6608908708109983E-005   8.3569439292070487E-004   3.1840477731474713E-002
 chl2c          67   3.7937587124568600E-002   3.7937587124568600E-002  0.75736760000000003        4.3797897578871345E-004   1.3125634988200239E-016
 chl          67   3.1505806808024683E-005   8.3046417012697527E-004   3.7937587124568600E-002
 chl2c          68   3.7855407263856986E-002   3.7855407263856986E-002  0.72590779999999999        4.3797897578871345E-004   2.3945693695298073E-007
 chl          68   3.1515817766445454E-005   8.3253146761243929E-004   3.7855407263856986E-002
 chl2c          69   2.1732330561541505E-002   2.1732330561541505E-002  0.45524217500000003        4.3797897578871345E-004   2.8336870483438171E-006
 chl          69   1.8705733140428989E-005   8.6073295670973651E-004   2.1732330561541505E-002
 chl2c          70   3.2658010878182209E-002   3.2658010878182209E-002  0.48694062500000002        2.4756690951478543E-004   9.6235641138504614E-017
 chl          70   2.7292116574846119E-005   8.3569439292088441E-004   3.2658010878182209E-002
 chl2c          71   4.3481058864416305E-002   4.3481058864416305E-002  0.23986107500000001        1.5469273631052430E-004   8.4056230728426215E-017
 chl          71   3.6336877091250837E-005   8.3569439292077426E-004   4.3481058864416305E-002
 chl2c          72   3.7549776402781669E-002   3.7549776402781669E-002  0.62790522500000001        4.3797897578871345E-004   1.5787629471321079E-016
 chl          72   3.1183743906051772E-005   8.3046417032037754E-004   3.7549776402781669E-002
 chl2c          73   3.1852614277819484E-002   3.1852614277819484E-002  0.35362212500000001        2.4756690951478543E-004   9.2662169813313431E-017
 chl          73   2.6619051151844412E-005   8.3569439292085189E-004   3.1852614277819484E-002
 chl2c          74   3.7616827685877569E-002   3.7616827685877569E-002  0.64719590000000005        4.3797897578871345E-004   1.1903166547231832E-007
 chl          74   3.1277033258887153E-005   8.3146387356394335E-004   3.7616827685877569E-002
 chl2c          75   3.7826830779512356E-002   3.7826830779512356E-002  0.71554212500000003        4.3797897578871345E-004   1.2448232912069905E-016
 chl          75   3.1413827639145659E-005   8.3046417032007634E-004   3.7826830779512356E-002
 chl2c          76   3.7257729557919804E-002   3.7257729557919804E-002  0.55513977500000000        4.3797897578871345E-004   3.3927264392091723E-006
 chl          76   3.2086526184675466E-005   8.6120454910690867E-004   3.7257729557919804E-002
 chl2c          77   3.7138172437479272E-002   3.7138172437479272E-002  0.52973029999999999        4.3797897578871345E-004   1.0939100325714422E-016
 chl          77   3.0841921553316403E-005   8.3046417012677795E-004   3.7138172437479272E-002
 chl2c          78   4.7515248899399322E-002   4.7515248899399322E-002  0.45117492500000000        1.5469273631052430E-004   2.4543505528116392E-006
 chl          78   4.0719940423677768E-005   8.5698678565045974E-004   4.7515248899399322E-002
 prod   4.0242222223260752E-007   471.59486755300253        10.000000000000000     
 chl2c           1   3.7477407714772232E-002   3.7477407714772232E-002  0.60826437499999997        3.3961175822705788E-004   1.5021680342159133E-016
 chl           1   3.1733261631631618E-005   8.4673043218844396E-004   3.7477407714772232E-002
 chl2c           2   3.2640259920490348E-002   3.2640259920490348E-002  0.48302390000000001        1.8990540452275953E-004   1.7748059781754978E-006
 chl           2   2.8158138369574916E-005   8.6268119304706511E-004   3.2640259920490348E-002
 chl2c           3   3.7922212503796585E-002   3.7922212503796585E-002  0.75128689999999998        3.3961175822705788E-004   1.6188827914940836E-016
 chl           3   3.2109891382885751E-005   8.4673043218855086E-004   3.7922212503796585E-002
 chl2c           4   3.7976509103863923E-002   3.7976509103863923E-002  0.77318742499999993        3.3961175822705788E-004   2.4794607577550519E-006
 chl           4   3.3022934493601686E-005   8.6956213914463683E-004   3.7976509103863923E-002
 chl2c           5   2.5710500362372445E-002   2.5710500362372445E-002  0.48489679999999996        2.2703459751515992E-004   2.9436216630699183E-006
 chl           5   2.2376823176761629E-005   8.7033791102371220E-004   2.5710500362372445E-002
 chl2c           6   3.1261039902252048E-002   3.1261039902252048E-002  0.29222855000000003        1.8990540452275953E-004   1.0230586779514406E-016
 chl           6   2.6472310627436306E-005   8.4681478000126409E-004   3.1261039902252048E-002
 chl2c           7   4.3064391842467263E-002   4.3064391842467263E-002  0.22770740000000000        1.2098620124345858E-004   1.3608738468837622E-006
 chl           7   3.6995425029123259E-005   8.5907227401365075E-004   4.3064391842467263E-002
 chl2c           8   4.7969800906495587E-002   4.7969800906495587E-002  0.49578364999999996        1.2098620124345858E-004   7.3608168766980760E-017
 chl           8   4.0621536401325893E-005   8.4681478000100128E-004   4.7969800906495587E-002
 chl2c           9   2.4803669054600401E-002   2.4803669054600401E-002  0.28700202499999999        2.2703459751515992E-004   2.4223743187039234E-008
 chl           9   2.1009682480415252E-005   8.4703930028120296E-004   2.4803669054600401E-002
 chl2c          10   2.9089914362931377E-002   2.5387016219684602E-002  0.39094662499999999        2.2703459751515992E-004   3.5676753532636632E-006
 chl          10   2.5445560814218958E-005   8.7472106300332268E-004   2.9089914362931377E-002
 chl2c          11   2.1820572217820047E-002   2.1820572217820047E-002  0.49737575000000001        3.3961175822705788E-004   1.4836662205100241E-016
 chl          11   1.8477983062144238E-005   8.4681478000168844E-004   2.1820572217820047E-002
 chl2c          12   4.5290941298723353E-002   4.5290941298723353E-002  0.30768942500000002        1.2098620124345858E-004   7.2982210027159065E-017
 chl          12   3.8353038491916411E-005   8.4681478000099542E-004   4.5290941298723353E-002
 chl2c          13   3.7935816987997487E-002   3.7935816987997487E-002  0.75666275000000005        3.3961175822705788E-004   1.3483462146537583E-016
 chl          13   3.2121410706192362E-005   8.4673043199136203E-004   3.7935816987997487E-002
 chl2c          14   4.6856526101924839E-002   4.6856526101924839E-002  0.39804095000000000        1.2098620124345858E-004   8.1051464364187343E-017
 chl          14   3.9678798842615845E-005   8.4681478000106936E-004   4.6856526101924839E-002
 chl2c          15   2.2002438719377512E-002   2.0954299823745293E-002  0.25607262500000000        3.3961175822705788E-004   4.0873383990632910E-006
 chl          15   1.9333446318495352E-005   8.7869561029470873E-004   2.2002438719377512E-002
 chl2c          16   3.7823443882273475E-002   3.7823443882273475E-002  0.71433214999999994        3.3961175822705788E-004   1.6846803658976884E-016
 chl          16   3.2026260985299101E-005   8.4673043218861125E-004   3.7823443882273475E-002
 chl2c          17   3.7542254757581245E-002   3.7542254757581245E-002  0.62580860000000005        3.3961175822705788E-004   1.6838451696933883E-016
 chl          17   3.1788169596221684E-005   8.4673043218861049E-004   3.7542254757581245E-002
 chl2c          18   2.5694475239060960E-002   2.5694475239060960E-002  0.47925950000000000        2.2703459751515992E-004   1.5479169367023424E-016
 chl          18   2.1758461396825763E-005   8.4681478000174775E-004   2.5694475239060960E-002
 chl2c          19   3.7570220750293731E-002   3.7570220750293731E-002  0.63367130000000005        3.3961175822705788E-004   9.4233636090499026E-007
 chl          19   3.2137854911867184E-005   8.5540766783000406E-004   3.7570220750293731E-002
 chl2c          20   3.7020645196759419E-002   3.7020645196759419E-002  0.50678202500000002        3.3961175822705788E-004   1.4835603915765473E-016
 chl          20   3.1346506900055643E-005   8.4673043199148628E-004   3.7020645196759419E-002
 chl2c          21   3.7838475073783531E-002   3.7838475073783531E-002  0.71973185000000006        3.3961175822705788E-004   9.5150453098991368E-008
 chl          21   3.2072038123912285E-005   8.4760387572102407E-004   3.7838475073783531E-002
 chl2c          22   3.7613353106285476E-002   3.7613353106285476E-002  0.64616892500000001        3.3961175822705788E-004   3.7088349891662028E-006
 chl          22   3.3104087447190209E-005   8.8011529718307047E-004   3.7613353106285476E-002
 chl2c          23   3.2286562315070731E-002   3.2286562315070731E-002  0.41564179999999995        1.8990540452275953E-004   9.6488170221572564E-017
 chl          23   2.7340738163831999E-005   8.4681478000121063E-004   3.2286562315070731E-002
 chl2c          24   3.7348402796863071E-002   3.7348402796863071E-002  0.57597492500000003        3.3961175822705788E-004   1.2062995520730028E-016
 chl          24   3.1624029234370398E-005   8.4673043199123171E-004   3.7348402796863071E-002
 chl2c          25   4.5426679235459781E-002   4.5426679235459781E-002  0.31406487500000002        1.2098620124345858E-004   7.6688770439564384E-017
 chl          25   3.8467983382953203E-005   8.4681478000102936E-004   4.5426679235459781E-002
 chl2c          26   4.7955660680174553E-002   4.7955660680174553E-002  0.49427735000000000        1.2098620124345858E-004   7.0504774616033099E-017
 chl          26   4.0609562248683311E-005   8.4681478000097276E-004   4.7955660680174553E-002
 chl2c          27   4.5333133499525620E-002   4.5333133499525620E-002  0.30964730000000001        1.2098620124345858E-004   8.0436408239492880E-017
 chl          27   3.8388767471159648E-005   8.4681478000106383E-004   4.5333133499525620E-002
 chl2c          28   3.1209236063453518E-002   3.1209236063453518E-002  0.28776342500000002        1.8990540452275953E-004   7.9997837397118512E-017
 chl          28   2.6428442371074534E-005   8.4681478000105982E-004   3.1209236063453518E-002
 chl2c          29   3.7743217595736761E-002   3.7743217595736761E-002  0.68676297499999994        3.3961175822705788E-004   3.5570859270047600E-006
 chl          29   3.3172117124665300E-005   8.7888948631693268E-004   3.7743217595736761E-002
 chl2c          30   2.5380056985171612E-002   2.5380056985171612E-002  0.38930277499999999        2.2703459751515992E-004   1.6948709496462518E-016
 chl          30   2.1492207372333342E-005   8.4681478000188251E-004   2.5380056985171612E-002
 chl2c          31   3.7576959810037038E-002   3.7576959810037038E-002  0.63559385000000002        3.3961175822705788E-004   3.7822080434526494E-006
 chl          31   3.3094126539578822E-005   8.8070260890928110E-004   3.7576959810037038E-002
 chl2c          32   2.0893126428578448E-002   2.0893126428578448E-002  0.24722667500000001        3.3961175822705788E-004   3.6238616302879519E-006
 chl          32   1.8296492622795911E-005   8.7571827439713570E-004   2.0893126428578448E-002
 chl2c          33   3.7458922634011876E-002   3.7458922634011876E-002  0.60343137499999999        3.3961175822705788E-004   1.2787448851642251E-006
 chl          33   3.2159203332224235E-005   8.5851917436152812E-004   3.7458922634011876E-002
 chl2c          34   2.5350269098008315E-002   2.5350269098008315E-002  0.38241020000000003        2.2703459751515992E-004   2.8458678576687502E-006
 chl          34   2.2046891634462598E-005   8.6969063520492360E-004   2.5350269098008315E-002
 chl2c          35   2.5740370148566064E-002   2.5740370148566064E-002  0.49574644999999995        2.2703459751515992E-004   1.2285319166101264E-016
 chl          35   2.1797325884513976E-005   8.4681478000145447E-004   2.5740370148566064E-002
 chl2c          36   3.7770393924465726E-002   3.7770393924465726E-002  0.69587337500000002        3.3961175822705788E-004   1.2848788778796931E-016
 chl          36   3.1981341971583102E-005   8.4673043218824436E-004   3.7770393924465726E-002
 chl2c          37   2.1353674699533250E-002   2.1353674699533250E-002  0.33194060000000003        3.3961175822705788E-004   1.1258218393892235E-016
 chl          37   1.8082607342905860E-005   8.4681478000136015E-004   2.1353674699533250E-002
 chl2c          38   2.1543295686358745E-002   2.1543295686358745E-002  0.38455722500000000        3.3961175822705788E-004   1.7295495835867164E-016
 chl          38   1.8243181197160068E-005   8.4681478000191428E-004   2.1543295686358745E-002
 chl2c          39   2.5670077108751441E-002   2.5670077108751441E-002  0.47091117500000002        2.2703459751515992E-004   1.3960394794446531E-016
 chl          39   2.1737800699471663E-005   8.4681478000160789E-004   2.5670077108751441E-002
 chl2c          40   3.7687445774703773E-002   3.7687445774703773E-002  0.66875547499999999        3.3961175822705788E-004   1.6879050093271742E-016
 chl          40   3.1911107248899885E-005   8.4673043218861418E-004   3.7687445774703773E-002
 chl2c          41   2.5582381488167241E-002   2.5582381488167241E-002  0.44304987499999998        2.2703459751515992E-004   1.0147291213604901E-016
 chl          41   2.1663538751810602E-005   8.4681478000125823E-004   2.5582381488167241E-002
 chl2c          42   3.7949995630725070E-002   3.7949995630725070E-002  0.76234377499999995        3.3961175822705788E-004   1.4256774453863907E-016
 chl          42   3.2133416194476837E-005   8.4673043199143304E-004   3.7949995630725070E-002
 chl2c          43   2.1185090152268007E-002   2.1185090152268007E-002  0.29539925000000000        3.3961175822705788E-004   1.7222417133658792E-016
 chl          43   1.7939847456613411E-005   8.4681478000190756E-004   2.1185090152268007E-002
 chl2c          44   3.7536352708156646E-002   3.7536352708156646E-002  0.62417262500000004        3.3961175822705788E-004   1.2192564173049267E-016
 chl          44   3.1783172143953162E-005   8.4673043199124363E-004   3.7536352708156646E-002
 chl2c          45   4.6544927192009838E-002   4.6544927192009838E-002  0.37662252499999999        1.2098620124345858E-004   1.7916881093442209E-006
 chl          45   4.0150761085731432E-005   8.6262378110721241E-004   4.6544927192009838E-002
 chl2c          46   3.7083195475449568E-002   3.7083195475449568E-002  0.51876034999999998        3.3961175822705788E-004   3.8100386937310161E-006
 chl          46   3.2665431824550435E-005   8.8086885193526933E-004   3.7083195475449568E-002
 chl2c          47   3.7519784612651236E-002   3.7519784612651236E-002  0.61962282499999999        3.3961175822705788E-004   1.5543880835175882E-016
 chl          47   3.1769143433300136E-005   8.4673043199155111E-004   3.7519784612651236E-002
 chl2c          48   3.7823212136301673E-002   3.7823212136301673E-002  0.71424949999999998        3.3961175822705788E-004   1.4953344111390893E-016
 chl          48   3.2026064751476751E-005   8.4673043199149701E-004   3.7823212136301673E-002
 chl2c          49   3.7152990741888416E-002   3.7152990741888416E-002  0.53276120000000005        3.3961175822705788E-004   1.3923296094412306E-016
 chl          49   3.1458567900651753E-005   8.4673043199140247E-004   3.7152990741888416E-002
 chl2c          50   2.1533072915600981E-002   2.1533072915600981E-002  0.38132569999999999        3.3961175822705788E-004   1.6071036729285264E-006
 chl          50   1.8550680554965765E-005   8.6149713176912916E-004   2.1533072915600981E-002
 chl2c          51   2.0700971146093840E-002   2.0700971146093840E-002  0.22275920000000002        3.3961175822705788E-004   1.8366175005716923E-016
 chl          51   1.7529888326907467E-005   8.4681478000201262E-004   2.0700971146093840E-002
 chl2c          52   3.7581825176985564E-002   3.7581825176985564E-002  0.63698869999999996        3.3961175822705788E-004   1.6534229467703704E-016
 chl          52   3.1821675074544746E-005   8.4673043218858274E-004   3.7581825176985564E-002
 chl2c          53   3.7925801262726190E-002   3.7925801262726190E-002  0.75269794999999995        3.3961175822705788E-004   1.4819799401027740E-016
 chl          53   3.2112930094280470E-005   8.4673043218842531E-004   3.7925801262726190E-002
 chl2c          54   3.7082433371327092E-002   3.7082433371327092E-002  0.51861124999999997        3.3961175822705788E-004   1.2173099048810675E-016
 chl          54   3.1398824827790236E-005   8.4673043199124190E-004   3.7082433371327092E-002
 chl2c          55   3.7357235588660491E-002   3.7357235588660491E-002  0.57808280000000001        3.3961175822705788E-004   3.7799668245880871E-006
 chl          55   3.2899028765868605E-005   8.8066015184096917E-004   3.7357235588660491E-002
 chl2c          56   3.7507394187257688E-002   3.7507394187257688E-002  0.61626080000000005        3.3961175822705788E-004   1.6577562404851020E-016
 chl          56   3.1758652090444382E-005   8.4673043218858664E-004   3.7507394187257688E-002
 chl2c          57   3.7727617852646313E-002   3.7727617852646313E-002  0.68163462500000005        3.3961175822705788E-004   3.9291549326510744E-006
 chl          57   3.3271576762044449E-005   8.8188914794445981E-004   3.7727617852646313E-002
 chl2c          58   3.7765358178394853E-002   3.7765358178394853E-002  0.69416802499999997        3.3961175822705788E-004   6.5955533187907373E-007
 chl          58   3.2206203502284281E-005   8.5279751221078309E-004   3.7765358178394853E-002
 chl2c          59   3.7173699120809672E-002   3.7173699120809672E-002  0.53705127500000005        3.3961175822705788E-004   1.6860709105066298E-016
 chl          59   3.1476102315291610E-005   8.4673043199167200E-004   3.7173699120809672E-002
 chl2c          60   3.7607757740906807E-002   3.7607757740906807E-002  0.64452155000000000        3.3961175822705788E-004   1.9891939916336722E-007
 chl          60   3.1912332911178160E-005   8.4855718150051774E-004   3.7607757740906807E-002
 chl2c          61   3.7805373434125003E-002   3.7805373434125003E-002  0.70794139999999994        3.3961175822705788E-004   1.4506398475082734E-016
 chl          61   3.2010960179474978E-005   8.4673043199145592E-004   3.7805373434125003E-002
 chl2c          62   3.7956103087269030E-002   3.7956103087269030E-002  0.76481592499999995        3.3961175822705788E-004   1.1855173623840871E-016
 chl          62   3.2138587563786311E-005   8.4673043199121284E-004   3.7956103087269030E-002
 chl2c          63   3.7855601011927406E-002   3.7855601011927406E-002  0.72597904999999996        3.3961175822705788E-004   1.7588242222400188E-006
 chl          63   3.2667988281918335E-005   8.6296313910391817E-004   3.7855601011927406E-002
 chl2c          64   2.5708982294816416E-002   2.5708982294816416E-002  0.48435739999999999        2.2703459751515992E-004   9.8751097683409830E-017
 chl          64   2.1770746186040559E-005   8.4681478000123308E-004   2.5708982294816416E-002
 chl2c          65   3.7953597170552002E-002   3.7953597170552002E-002  0.76379975000000000        3.3961175822705788E-004   1.3090665875647611E-016
 chl          65   3.2136465735320866E-005   8.4673043218826648E-004   3.7953597170552002E-002
 chl2c          66   3.1840477731474713E-002   3.1840477731474713E-002  0.35213202499999996        1.8990540452275953E-004   7.6296630313889879E-017
 chl          66   2.6962987145306320E-005   8.4681478000102578E-004   3.1840477731474713E-002
 chl2c          67   3.7937587124568600E-002   3.7937587124568600E-002  0.75736760000000003        3.3961175822705788E-004   1.3844675855723533E-016
 chl          67   3.2122909534697159E-005   8.4673043199139509E-004   3.7937587124568600E-002
 chl2c          68   3.7855407263856986E-002   3.7855407263856986E-002  0.72590779999999999        3.3961175822705788E-004   3.5098124451978658E-007
 chl          68   3.2175407418685929E-005   8.4995538931649213E-004   3.7855407263856986E-002
 chl2c          69   2.1732330561541505E-002   2.1732330561541505E-002  0.45524217500000003        3.3961175822705788E-004   2.9589836514886195E-006
 chl          69   1.8950245206545823E-005   8.7198403102155167E-004   2.1732330561541505E-002
 chl2c          70   3.2658010878182209E-002   3.2658010878182209E-002  0.48694062500000002        1.8990540452275953E-004   9.6125069154022147E-017
 chl          70   2.7655286297084908E-005   8.4681478000120749E-004   3.2658010878182209E-002
 chl2c          71   4.3481058864416305E-002   4.3481058864416305E-002  0.23986107500000001        1.2098620124345858E-004   8.3949655257096352E-017
 chl          71   3.6820403296485383E-005   8.4681478000109571E-004   4.3481058864416305E-002
 chl2c          72   3.7549776402781669E-002   3.7549776402781669E-002  0.62790522500000001        3.3961175822705788E-004   1.6629430065093171E-016
 chl          72   3.1794538402112296E-005   8.4673043218859141E-004   3.7549776402781669E-002
 chl2c          73   3.1852614277819484E-002   3.1852614277819484E-002  0.35362212500000001        1.8990540452275953E-004   9.2546844767170905E-017
 chl          73   2.6973264552133981E-005   8.4681478000117464E-004   3.1852614277819484E-002
 chl2c          74   3.7616827685877569E-002   3.7616827685877569E-002  0.64719590000000005        3.3961175822705788E-004   2.0390754537829388E-007
 chl          74   3.1921753191073016E-005   8.4860300973910554E-004   3.7616827685877569E-002
 chl2c          75   3.7826830779512356E-002   3.7826830779512356E-002  0.71554212500000003        3.3961175822705788E-004   1.3134838203855002E-016
 chl          75   3.2029128774249078E-005   8.4673043218827071E-004   3.7826830779512356E-002
 chl2c          76   3.7257729557919804E-002   3.7257729557919804E-002  0.55513977500000000        3.3961175822705788E-004   3.5605196571367578E-006
 chl          76   3.2744868494031483E-005   8.7887450154812148E-004   3.7257729557919804E-002
 chl2c          77   3.7138172437479272E-002   3.7138172437479272E-002  0.52973029999999999        3.3961175822705788E-004   1.1551673811389616E-016
 chl          77   3.1446020791350497E-005   8.4673043199119994E-004   3.7138172437479272E-002
 chl2c          78   4.7515248899399322E-002   4.7515248899399322E-002  0.45117492500000000        1.2098620124345858E-004   2.4241327140716498E-006
 chl          78   4.1201862694426950E-005   8.6712926163263386E-004   4.7515248899399322E-002
 prod   4.0182030541917975E-007   307.88769285515087        10.000000000000000     
 chl2c           1   3.7477407714772232E-002   3.7477407714772232E-002  0.60826437499999997        2.7748205677411331E-004   1.5243818020041248E-016
 chl           1   3.1985544205202745E-005   8.5346202300420058E-004   3.7477407714772232E-002
 chl2c           2   3.2640259920490348E-002   3.2640259920490348E-002  0.48302390000000001        1.5850612049196191E-004   1.7627197189506251E-006
 chl           2   2.8364926298845825E-005   8.6901655709669681E-004   3.2640259920490348E-002
 chl2c           3   3.7922212503796585E-002   3.7922212503796585E-002  0.75128689999999998        2.7748205677411331E-004   1.6425370006868795E-016
 chl           3   3.2365168200289565E-005   8.5346202300430976E-004   3.7922212503796585E-002
 chl2c           4   3.7976509103863923E-002   3.7976509103863923E-002  0.77318742499999993        2.7748205677411331E-004   2.6041570714857863E-006
 chl           4   3.3318567530761300E-005   8.7734676822550013E-004   3.7976509103863923E-002
 chl2c           5   3.2654978087142440E-002   2.5710500362372445E-002  0.48489679999999996        1.6959450965558649E-004   2.9689971833096980E-006
 chl           5   2.8636153698402802E-005   8.7693072774340617E-004   3.2654978087142440E-002
 chl2c           6   3.1261039902252048E-002   3.1261039902252048E-002  0.29222855000000003        1.5850612049196191E-004   1.0216274272992001E-016
 chl           6   2.6681425236298618E-005   8.5350408430835613E-004   3.1261039902252048E-002
 chl2c           7   4.3064391842467263E-002   4.3064391842467263E-002  0.22770740000000000        1.0263545895734378E-004   1.3916216151117614E-006
 chl           7   3.7288576342625751E-005   8.6587955262505797E-004   4.3064391842467263E-002
 chl2c           8   4.7969800906495587E-002   4.7969800906495587E-002  0.49578364999999996        1.0263545895734378E-004   7.3497464568284652E-017
 chl           8   4.0942420997139970E-005   8.5350408430809137E-004   4.7969800906495587E-002
 chl2c           9   2.4803669054600401E-002   2.4803669054600401E-002  0.28700202499999999        1.6959450965558649E-004   9.4806049733260317E-008
 chl           9   2.1191676241033251E-005   8.5437667283755239E-004   2.4803669054600401E-002
 chl2c          10   3.8262503675561513E-002   2.5387016219684602E-002  0.39094662499999999        1.6959450965558649E-004   3.5965552671848629E-006
 chl          10   3.3732422265621051E-005   8.8160520157404515E-004   3.8262503675561513E-002
 chl2c          11   2.1820572217820047E-002   2.1820572217820047E-002  0.49737575000000001        2.7748205677411331E-004   1.5032161891012666E-016
 chl          11   1.8623947509864610E-005   8.5350408430880326E-004   2.1820572217820047E-002
 chl2c          12   4.5290941298723353E-002   4.5290941298723353E-002  0.30768942500000002        1.0263545895734378E-004   7.2872303588499495E-017
 chl          12   3.8656003380618136E-005   8.5350408430808562E-004   4.5290941298723353E-002
 chl2c          13   3.7935816987997487E-002   3.7935816987997487E-002  0.75666275000000005        2.7748205677411331E-004   1.3686009124037008E-016
 chl          13   3.2376779103342655E-005   8.5346202280515916E-004   3.7935816987997487E-002
 chl2c          14   4.6856526101924839E-002   4.6856526101924839E-002  0.39804095000000000        1.0263545895734378E-004   8.0933285407160723E-017
 chl          14   3.9992236404484760E-005   8.5350408430816011E-004   4.6856526101924839E-002
 chl2c          15   2.6610564568635423E-002   2.0954299823745293E-002  0.25607262500000000        2.7748205677411331E-004   4.1201332550471583E-006
 chl          15   2.3568141497935895E-005   8.8566860117332937E-004   2.6610564568635423E-002
 chl2c          16   3.7823443882273475E-002   3.7823443882273475E-002  0.71433214999999994        2.7748205677411331E-004   1.7091292724827218E-016
 chl          16   3.2280872932757440E-005   8.5346202300437156E-004   3.7823443882273475E-002
 chl2c          17   3.7542254757581245E-002   3.7542254757581245E-002  0.62580860000000005        2.7748205677411331E-004   1.7082840668313855E-016
 chl          17   3.2040888693550747E-005   8.5346202300437069E-004   3.7542254757581245E-002
 chl2c          18   2.5694475239060960E-002   2.5694475239060960E-002  0.47925950000000000        1.6959450965558649E-004   1.5680656724982914E-016
 chl          18   2.1930339560711487E-005   8.5350408430886332E-004   2.5694475239060960E-002
 chl2c          19   3.7570220750293731E-002   3.7570220750293731E-002  0.63367130000000005        2.7748205677411331E-004   1.0300832438879781E-006
 chl          19   3.2423846808185684E-005   8.6301986415483561E-004   3.7570220750293731E-002
 chl2c          20   3.7020645196759419E-002   3.7020645196759419E-002  0.50678202500000002        2.7748205677411331E-004   1.5055408546508523E-016
 chl          20   3.1595714735183092E-005   8.5346202280528602E-004   3.7020645196759419E-002
 chl2c          21   3.7838475073783531E-002   3.7838475073783531E-002  0.71973185000000006        2.7748205677411331E-004   1.5068661593205032E-007
 chl          21   3.2346298842695061E-005   8.5485207264883315E-004   3.7838475073783531E-002
 chl2c          22   3.7613353106285476E-002   3.7613353106285476E-002  0.64616892500000001        2.7748205677411331E-004   3.7805426488473292E-006
 chl          22   3.3350079763831747E-005   8.8665532343243012E-004   3.7613353106285476E-002
 chl2c          23   3.2286562315070731E-002   3.2286562315070731E-002  0.41564179999999995        1.5850612049196191E-004   9.6349998122540914E-017
 chl          23   2.7556712804187388E-005   8.5350408430830236E-004   3.2286562315070731E-002
 chl2c          24   3.7348402796863071E-002   3.7348402796863071E-002  0.57597492500000003        2.7748205677411331E-004   1.2246831874090794E-016
 chl          24   3.1875443399547651E-005   8.5346202280502613E-004   3.7348402796863071E-002
 chl2c          25   4.5426679235459781E-002   4.5426679235459781E-002  0.31406487500000002        1.0263545895734378E-004   7.6574176049923457E-017
 chl          25   3.8771856264019777E-005   8.5350408430811978E-004   4.5426679235459781E-002
 chl2c          26   4.7955660680174553E-002   4.7955660680174553E-002  0.49427735000000000        1.0263545895734378E-004   7.0398049755377217E-017
 chl          26   4.0930352256220547E-005   8.5350408430806264E-004   4.7955660680174553E-002
 chl2c          27   4.5333133499525620E-002   4.5333133499525620E-002  0.30964730000000001        1.0263545895734378E-004   8.0318987949538280E-017
 chl          27   3.8692014596331937E-005   8.5350408430815447E-004   4.5333133499525620E-002
 chl2c          28   3.1209236063453518E-002   3.1209236063453518E-002  0.28776342500000002        1.5850612049196191E-004   7.9880959351014367E-017
 chl          28   2.6637210448294797E-005   8.5350408430815035E-004   3.1209236063453518E-002
 chl2c          29   3.7743217595736761E-002   3.7743217595736761E-002  0.68676297499999994        2.7748205677411331E-004   3.5913630633816912E-006
 chl          29   3.3413523398411533E-005   8.8528550364465265E-004   3.7743217595736761E-002
 chl2c          30   2.5380056985171612E-002   2.5380056985171612E-002  0.38930277499999999        1.6959450965558649E-004   1.7163183128248394E-016
 chl          30   2.1661982296839150E-005   8.5350408430900058E-004   2.5380056985171612E-002
 chl2c          31   3.7576959810037038E-002   3.7576959810037038E-002  0.63559385000000002        2.7748205677411331E-004   3.8104178183980119E-006
 chl          31   3.3325807873074634E-005   8.8686812455149983E-004   3.7576959810037038E-002
 chl2c          32   2.4250492903574103E-002   2.0893126428578448E-002  0.24722667500000001        2.7748205677411331E-004   3.7304595271779904E-006
 chl          32   2.1404860165552714E-005   8.8265670519208322E-004   2.4250492903574103E-002
 chl2c          33   3.7458922634011876E-002   3.7458922634011876E-002  0.60343137499999999        2.7748205677411331E-004   1.3744766993736457E-006
 chl          33   3.2447931544551522E-005   8.6622703652158731E-004   3.7458922634011876E-002
 chl2c          34   3.1014961072817392E-002   2.5350269098008315E-002  0.38241020000000003        1.6959450965558649E-004   2.8621120232475731E-006
 chl          34   2.7168003623821229E-005   8.7596445986296034E-004   3.1014961072817392E-002
 chl2c          35   2.5740370148566064E-002   2.5740370148566064E-002  0.49574644999999995        1.6959450965558649E-004   1.2455134417782935E-016
 chl          35   2.1969511053415402E-005   8.5350408430856506E-004   2.5740370148566064E-002
 chl2c          36   3.7770393924465726E-002   3.7770393924465726E-002  0.69587337500000002        2.7748205677411331E-004   1.3043049688559725E-016
 chl          36   3.2235596808432405E-005   8.5346202300399718E-004   3.7770393924465726E-002
 chl2c          37   2.1353674699533250E-002   2.1353674699533250E-002  0.33194060000000003        2.7748205677411331E-004   1.1416814034882342E-016
 chl          37   1.8225448571046043E-005   8.5350408430846878E-004   2.1353674699533250E-002
 chl2c          38   2.1543295686358745E-002   2.1543295686358745E-002  0.38455722500000000        2.7748205677411331E-004   1.7512892109680037E-016
 chl          38   1.8387290857784359E-005   8.5350408430903289E-004   2.1543295686358745E-002
 chl2c          39   2.5670077108751441E-002   2.5670077108751441E-002  0.47091117500000002        1.6959450965558649E-004   1.4147419508127833E-016
 chl          39   2.1909515656839175E-005   8.5350408430872162E-004   2.5670077108751441E-002
 chl2c          40   3.7687445774703773E-002   3.7687445774703773E-002  0.66875547499999999        2.7748205677411331E-004   1.7123925430188032E-016
 chl          40   3.2164803712746352E-005   8.5346202300437459E-004   3.7687445774703773E-002
 chl2c          41   2.5582381488167241E-002   2.5582381488167241E-002  0.44304987499999998        1.6959450965558649E-004   1.0293169283006208E-016
 chl          41   2.1834667086485444E-005   8.5350408430836481E-004   2.5582381488167241E-002
 chl2c          42   3.7949995630725070E-002   3.7949995630725070E-002  0.76234377499999995        2.7748205677411331E-004   1.4469257004758327E-016
 chl          42   3.2388880036448325E-005   8.5346202280523181E-004   3.7949995630725070E-002
 chl2c          43   2.1185090152268007E-002   2.1185090152268007E-002  0.29539925000000000        2.7748205677411331E-004   1.7439201978131547E-016
 chl          43   1.8081560971415674E-005   8.5350408430902617E-004   2.1185090152268007E-002
 chl2c          44   3.7536352708156646E-002   3.7536352708156646E-002  0.62417262500000004        2.7748205677411331E-004   1.2378132073006969E-016
 chl          44   3.2035851511026749E-005   8.5346202280503828E-004   3.7536352708156646E-002
 chl2c          45   4.6544927192009838E-002   4.6544927192009838E-002  0.37662252499999999        1.0263545895734378E-004   1.7267323524032347E-006
 chl          45   4.0426420408681469E-005   8.6854621647407563E-004   4.6544927192009838E-002
 chl2c          46   3.7083195475449568E-002   3.7083195475449568E-002  0.51876034999999998        2.7748205677411331E-004   3.8450383047660867E-006
 chl          46   3.2893858336272323E-005   8.8702869088100192E-004   3.7083195475449568E-002
 chl2c          47   3.7519784612651236E-002   3.7519784612651236E-002  0.61962282499999999        2.7748205677411331E-004   1.5772512103067058E-016
 chl          47   3.2021711270734460E-005   8.5346202280535237E-004   3.7519784612651236E-002
 chl2c          48   3.7823212136301673E-002   3.7823212136301673E-002  0.71424949999999998        2.7748205677411331E-004   1.5174626154582189E-016
 chl          48   3.2280675138841882E-005   8.5346202280529697E-004   3.7823212136301673E-002
 chl2c          49   3.7152990741888416E-002   3.7152990741888416E-002  0.53276120000000005        2.7748205677411331E-004   1.4131515651374515E-016
 chl          49   3.1708666631834975E-005   8.5346202280520047E-004   3.7152990741888416E-002
 chl2c          50   2.1533072915600981E-002   2.1533072915600981E-002  0.38132569999999999        2.7748205677411331E-004   1.7345440218944075E-006
 chl          50   1.8715033319720558E-005   8.6912970541056780E-004   2.1533072915600981E-002
 chl2c          51   2.0700971146093840E-002   2.0700971146093840E-002  0.22275920000000002        2.7748205677411331E-004   1.8592258314649710E-016
 chl          51   1.7668363422356598E-005   8.5350408430913264E-004   2.0700971146093840E-002
 chl2c          52   3.7581825176985564E-002   3.7581825176985564E-002  0.63698869999999996        2.7748205677411331E-004   1.6774958819853753E-016
 chl          52   3.2074660543745615E-005   8.5346202300434196E-004   3.7581825176985564E-002
 chl2c          53   3.7925801262726190E-002   3.7925801262726190E-002  0.75269794999999995        2.7748205677411331E-004   1.5039405407803415E-016
 chl          53   3.2368231069740848E-005   8.5346202300418193E-004   3.7925801262726190E-002
 chl2c          54   3.7082433371327092E-002   3.7082433371327092E-002  0.51861124999999997        2.7748205677411331E-004   1.2358407137663593E-016
 chl          54   3.1648448595625808E-005   8.5346202280503654E-004   3.7082433371327092E-002
 chl2c          55   3.7357235588660491E-002   3.7357235588660491E-002  0.57808280000000001        2.7748205677411331E-004   3.8436717617752483E-006
 chl          55   3.3138330312474103E-005   8.8706591347816424E-004   3.7357235588660491E-002
 chl2c          56   3.7507394187257688E-002   3.7507394187257688E-002  0.61626080000000005        2.7748205677411331E-004   1.6818814651912122E-016
 chl          56   3.2011136520678398E-005   8.5346202300434608E-004   3.7507394187257688E-002
 chl2c          57   3.7727617852646313E-002   3.7727617852646313E-002  0.68163462500000005        2.7748205677411331E-004   3.9425701054303466E-006
 chl          57   3.3496041880953579E-005   8.8783877136849453E-004   3.7727617852646313E-002
 chl2c          58   3.7765358178394853E-002   3.7765358178394853E-002  0.69416802499999997        2.7748205677411331E-004   7.5536755505075246E-007
 chl          58   3.2495630859684167E-005   8.6046134412871953E-004   3.7765358178394853E-002
 chl2c          59   3.7173699120809672E-002   3.7173699120809672E-002  0.53705127500000005        2.7748205677411331E-004   1.7105364776970185E-016
 chl          59   3.1726340446808353E-005   8.5346202280547564E-004   3.7173699120809672E-002
 chl2c          60   3.7607757740906807E-002   3.7607757740906807E-002  0.64452155000000000        2.7748205677411331E-004   2.5462498445488969E-007
 chl          60   3.2185287750121166E-005   8.5581512122730207E-004   3.7607757740906807E-002
 chl2c          61   3.7805373434125003E-002   3.7805373434125003E-002  0.70794139999999994        2.7748205677411331E-004   1.4722050737715815E-016
 chl          61   3.2265450483996382E-005   8.5346202280525512E-004   3.7805373434125003E-002
 chl2c          62   3.7956103087269030E-002   3.7956103087269030E-002  0.76481592499999995        2.7748205677411331E-004   1.2036222198462846E-016
 chl          62   3.2394092518655980E-005   8.5346202280500651E-004   3.7956103087269030E-002
 chl2c          63   3.7855601011927406E-002   3.7855601011927406E-002  0.72597904999999996        2.7748205677411331E-004   1.8486516736892922E-006
 chl          63   3.2957621682186263E-005   8.7061414430594027E-004   3.7855601011927406E-002
 chl2c          64   2.5708982294816416E-002   2.5708982294816416E-002  0.48435739999999999        1.6959450965558649E-004   1.0017778580376508E-016
 chl          64   2.1942721392036599E-005   8.5350408430833954E-004   2.5708982294816416E-002
 chl2c          65   3.7953597170552002E-002   3.7953597170552002E-002  0.76379975000000000        2.7748205677411331E-004   1.3288098696228950E-016
 chl          65   3.2391953821458958E-005   8.5346202300401984E-004   3.7953597170552002E-002
 chl2c          66   3.1840477731474713E-002   3.1840477731474713E-002  0.35213202499999996        1.5850612049196191E-004   7.6182527803592245E-017
 chl          66   2.7175977790135290E-005   8.5350408430811620E-004   3.1840477731474713E-002
 chl2c          67   3.7937587124568600E-002   3.7937587124568600E-002  0.75736760000000003        2.7748205677411331E-004   1.4051885619255640E-016
 chl          67   3.2378289847682565E-005   8.5346202280519310E-004   3.7937587124568600E-002
 chl2c          68   3.7855407263856986E-002   3.7855407263856986E-002  0.72590779999999999        2.7748205677411331E-004   4.3350498052255752E-007
 chl          68   3.2459945886348707E-005   8.5747184438140557E-004   3.7855407263856986E-002
 chl2c          69   2.1732330561541505E-002   2.1732330561541505E-002  0.45524217500000003        2.7748205677411331E-004   2.9852258871264131E-006
 chl          69   1.9074391234419323E-005   8.7769653514171227E-004   2.1732330561541505E-002
 chl2c          70   3.2658010878182209E-002   3.2658010878182209E-002  0.48694062500000002        1.5850612049196191E-004   9.5988944616386458E-017
 chl          70   2.7873745669913381E-005   8.5350408430829921E-004   3.2658010878182209E-002
 chl2c          71   4.3481058864416305E-002   4.3481058864416305E-002  0.23986107500000001        1.0263545895734378E-004   8.3826127998690444E-017
 chl          71   3.7111261330824003E-005   8.5350408430818667E-004   4.3481058864416305E-002
 chl2c          72   3.7549776402781669E-002   3.7549776402781669E-002  0.62790522500000001        2.7748205677411331E-004   1.6871307484896789E-016
 chl          72   3.2047308132079090E-005   8.5346202300435106E-004   3.7549776402781669E-002
 chl2c          73   3.1852614277819484E-002   3.1852614277819484E-002  0.35362212500000001        1.5850612049196191E-004   9.2413169493216973E-017
 chl          73   2.7186336382014718E-005   8.5350408430826604E-004   3.1852614277819484E-002
 chl2c          74   3.7616827685877569E-002   3.7616827685877569E-002  0.64719590000000005        2.7748205677411331E-004   2.6891867220337960E-007
 chl          74   3.2198002681933389E-005   8.5594678399798828E-004   3.7616827685877569E-002
 chl2c          75   3.7826830779512356E-002   3.7826830779512356E-002  0.71554212500000003        2.7748205677411331E-004   1.3332848418068035E-016
 chl          75   3.2283763520913495E-005   8.5346202300402385E-004   3.7826830779512356E-002
 chl2c          76   3.7257729557919804E-002   3.7257729557919804E-002  0.55513977500000000        2.7748205677411331E-004   3.5997740438226755E-006
 chl          76   3.2983424638656492E-005   8.8527736472458426E-004   3.7257729557919804E-002
 chl2c          77   3.7138172437479272E-002   3.7138172437479272E-002  0.52973029999999999        2.7748205677411331E-004   1.1728627965704921E-016
 chl          77   3.1696019772810799E-005   8.5346202283297242E-004   3.7138172437479272E-002
 chl2c          78   4.7515248899399322E-002   4.7515248899399322E-002  0.45117492500000000        1.0263545895734378E-004   2.3990015374196724E-006
 chl          78   4.1477282303258924E-005   8.7292570835682337E-004   4.7515248899399322E-002
 prod   4.0112299184169387E-007   233.52036536163712        10.000000000000000     
 chl2c           1   3.7477407714772232E-002   3.7477407714772232E-002  0.60826437499999997        2.3049967649767109E-004   1.4823026230230988E-016
 chl           1   3.2294957451608061E-005   8.6171801682213378E-004   3.7477407714772232E-002
 chl2c           2   3.2640259920490348E-002   3.2640259920490348E-002  0.48302390000000001        1.3455660363830964E-004   1.7406783162592090E-006
 chl           2   2.8618828252162184E-005   8.7679535401604877E-004   3.2640259920490348E-002
 chl2c           3   3.7922212503796585E-002   3.7922212503796585E-002  0.75128689999999998        2.3049967649767109E-004   1.5977007084714446E-016
 chl           3   3.2678253752283212E-005   8.6171801682224166E-004   3.7922212503796585E-002
 chl2c           4   3.7976509103863923E-002   3.7976509103863923E-002  0.77318742499999993        2.3049967649767109E-004   2.7041269412146071E-006
 chl           4   3.3655295230416796E-005   8.8621350473186422E-004   3.7976509103863923E-002
 chl2c           5   3.9566875305001283E-002   2.5710500362372445E-002  0.48489679999999996        1.3271966114418798E-004   2.8589361860312827E-006
 chl           5   3.4993611053821930E-005   8.8441684575983474E-004   3.9566875305001283E-002
 chl2c           6   3.1261039902252048E-002   3.1261039902252048E-002  0.29222855000000003        1.3455660363830964E-004   1.0203687158356185E-016
 chl           6   2.6939822396737835E-005   8.6176987333032025E-004   3.1261039902252048E-002
 chl2c           7   4.3064391842467263E-002   4.3064391842467263E-002  0.22770740000000000        8.8206449399160546E-005   1.4491552301748488E-006
 chl           7   3.7654076682753757E-005   8.7436685093557473E-004   4.3064391842467263E-002
 chl2c           8   4.7969800906495587E-002   4.7969800906495587E-002  0.49578364999999996        8.8206449399160546E-005   7.3420740758652483E-017
 chl           8   4.1338929250858576E-005   8.6176987333005332E-004   4.7969800906495587E-002
 chl2c           9   2.4803669054600401E-002   2.4803669054600401E-002  0.28700202499999999        1.3271966114418798E-004   2.5602993726583931E-007
 chl           9   2.1434303042253501E-005   8.6415856440714869E-004   2.4803669054600401E-002
 chl2c          10   4.6103974520766922E-002   2.5387016219684602E-002  0.39094662499999999        1.3271966114418798E-004   3.4684874617707797E-006
 chl          10   4.0981804409912520E-005   8.8889959783082929E-004   4.6103974520766922E-002
 chl2c          11   2.1820572217820047E-002   2.1820572217820047E-002  0.49737575000000001        2.3049967649767109E-004   1.4659543249050541E-016
 chl          11   1.8804311756155005E-005   8.6176987333073810E-004   2.1820572217820047E-002
 chl2c          12   4.5290941298723353E-002   4.5290941298723353E-002  0.30768942500000002        8.8206449399160546E-005   7.2796132922602451E-017
 chl          12   3.9030368745999437E-005   8.6176987333004746E-004   4.5290941298723353E-002
 chl2c          13   3.7935816987997487E-002   3.7935816987997487E-002  0.75666275000000005        2.3049967649767109E-004   1.3302646394285133E-016
 chl          13   3.2689976973809088E-005   8.6171801662138627E-004   3.7935816987997487E-002
 chl2c          14   4.6856526101924839E-002   4.6856526101924839E-002  0.39804095000000000        8.8206449399160546E-005   8.0830937244655625E-017
 chl          14   4.0379542563545348E-005   8.6176987333012249E-004   4.6856526101924839E-002
 chl2c          15   3.0425473640239249E-002   2.0954299823745293E-002  0.25607262500000000        2.3049967649767109E-004   3.9793392950513150E-006
 chl          15   2.7167856260281049E-005   8.9293125167163104E-004   3.0425473640239249E-002
 chl2c          16   3.7823443882273475E-002   3.7823443882273475E-002  0.71433214999999994        2.3049967649767109E-004   1.6627699226228881E-016
 chl          16   3.2593143051622351E-005   8.6171801682230248E-004   3.7823443882273475E-002
 chl2c          17   3.7542254757581245E-002   3.7542254757581245E-002  0.62580860000000005        2.3049967649767109E-004   1.6619439092090727E-016
 chl          17   3.2350837316740527E-005   8.6171801682230161E-004   3.7542254757581245E-002
 chl2c          18   2.5694475239060960E-002   2.5694475239060960E-002  0.47925950000000000        1.3271966114418798E-004   1.5296373009085545E-016
 chl          18   2.2142724672066880E-005   8.6176987333079762E-004   2.5694475239060960E-002
 chl2c          19   3.7570220750293731E-002   3.7570220750293731E-002  0.63367130000000005        2.3049967649767109E-004   1.1507533282260462E-006
 chl          19   3.2779962669934883E-005   8.7249853781278626E-004   3.7570220750293731E-002
 chl2c          20   3.7020645196759419E-002   3.7020645196759419E-002  0.50678202500000002        2.3049967649767109E-004   1.4639078246071108E-016
 chl          20   3.1901356953000190E-005   8.6171801662151095E-004   3.7020645196759419E-002
 chl2c          21   3.7838475073783531E-002   3.7838475073783531E-002  0.71973185000000006        2.3049967649767109E-004   2.6692801026317044E-007
 chl          21   3.2700302700360236E-005   8.6420773132627404E-004   3.7838475073783531E-002
 chl2c          22   3.7613353106285476E-002   3.7613353106285476E-002  0.64616892500000001        2.3049967649767109E-004   3.7034020704059203E-006
 chl          22   3.3603040675753486E-005   8.9338061886692487E-004   3.7613353106285476E-002
 chl2c          23   3.2286562315070731E-002   3.2286562315070731E-002  0.41564179999999995        1.3455660363830964E-004   9.6254225934783116E-017
 chl          23   2.7823586716528247E-005   8.6176987333026615E-004   3.2286562315070731E-002
 chl2c          24   3.7348402796863071E-002   3.7348402796863071E-002  0.57597492500000003        2.3049967649767109E-004   1.1899147341205203E-016
 chl          24   3.2183791582084582E-005   8.6171801662125508E-004   3.7348402796863071E-002
 chl2c          25   4.5426679235459781E-002   4.5426679235459781E-002  0.31406487500000002        8.8206449399160546E-005   7.6494754829569220E-017
 chl          25   3.9147343610548438E-005   8.6176987333008194E-004   4.5426679235459781E-002
 chl2c          26   4.7955660680174553E-002   4.7955660680174553E-002  0.49427735000000000        8.8206449399160546E-005   7.0324085059434167E-017
 chl          26   4.1326743629811656E-005   8.6176987333002437E-004   4.7955660680174553E-002
 chl2c          27   4.5333133499525620E-002   4.5333133499525620E-002  0.30964730000000001        8.8206449399160546E-005   8.0217340009499301E-017
 chl          27   3.9066728713543468E-005   8.6176987333011674E-004   4.5333133499525620E-002
 chl2c          28   3.1209236063453518E-002   3.1209236063453518E-002  0.28776342500000002        1.3455660363830964E-004   7.9779811391373509E-017
 chl          28   2.6895179409131922E-005   8.6176987333011262E-004   3.1209236063453518E-002
 chl2c          29   3.7743217595736761E-002   3.7743217595736761E-002  0.68676297499999994        2.3049967649767109E-004   3.4534827992674884E-006
 chl          29   3.3657074891933258E-005   8.9173835819802896E-004   3.7743217595736761E-002
 chl2c          30   2.5380056985171612E-002   2.5380056985171612E-002  0.38930277499999999        1.3271966114418798E-004   1.6753508152204650E-016
 chl          30   2.1871768493243218E-005   8.6176987333093369E-004   2.5380056985171612E-002
 chl2c          31   3.7576959810037038E-002   3.7576959810037038E-002  0.63559385000000002        2.3049967649767109E-004   3.6457264729564010E-006
 chl          31   3.3556187976870555E-005   8.9299901180157459E-004   3.7576959810037038E-002
 chl2c          32   2.8713943671391330E-002   2.0893126428578448E-002  0.24722667500000001        2.3049967649767109E-004   3.7441371689629642E-006
 chl          32   2.5586943273441302E-005   8.9109819139662229E-004   2.8713943671391330E-002
 chl2c          33   3.7458922634011876E-002   3.7458922634011876E-002  0.60343137499999999        2.3049967649767109E-004   1.4883906096061105E-006
 chl          33   3.2800763765255384E-005   8.7564621347312893E-004   3.7458922634011876E-002
 chl2c          34   3.7180926406903576E-002   2.5350269098008315E-002  0.38241020000000003        1.3271966114418798E-004   2.7330484347427827E-006
 chl          34   3.2841203745749418E-005   8.8328094320026470E-004   3.7180926406903576E-002
 chl2c          35   2.5740370148566064E-002   2.5740370148566064E-002  0.49574644999999995        1.3271966114418798E-004   1.2132298860786107E-016
 chl          35   2.2182275522410014E-005   8.6176987333050207E-004   2.5740370148566064E-002
 chl2c          36   3.7770393924465726E-002   3.7770393924465726E-002  0.69587337500000002        2.3049967649767109E-004   1.2675495260694122E-016
 chl          36   3.2547428947173806E-005   8.6171801682193342E-004   3.7770393924465726E-002
 chl2c          37   2.1353674699533250E-002   2.1353674699533250E-002  0.33194060000000003        2.3049967649767109E-004   1.1115612919751246E-016
 chl          37   1.8401953540955487E-005   8.6176987333040698E-004   2.1353674699533250E-002
 chl2c          38   2.1543295686358745E-002   2.1543295686358745E-002  0.38455722500000000        2.3049967649767109E-004   1.7097483654237452E-016
 chl          38   1.8565363194764918E-005   8.6176987333096578E-004   2.1543295686358745E-002
 chl2c          39   2.5670077108751441E-002   2.5670077108751441E-002  0.47091117500000002        1.3271966114418798E-004   1.3791270866844456E-016
 chl          39   2.2121699098396927E-005   8.6176987333065700E-004   2.5670077108751441E-002
 chl2c          40   3.7687445774703773E-002   3.7687445774703773E-002  0.66875547499999999        2.3049967649767109E-004   1.6659591269180436E-016
 chl          40   3.2475951032075909E-005   8.6171801682230541E-004   3.7687445774703773E-002
 chl2c          41   2.5582381488167241E-002   2.5582381488167241E-002  0.44304987499999998        1.3271966114418798E-004   1.0016420408320976E-016
 chl          41   2.2046125654545409E-005   8.6176987333030442E-004   2.5582381488167241E-002
 chl2c          42   3.7949995630725070E-002   3.7949995630725070E-002  0.76234377499999995        2.3049967649767109E-004   1.4066921471732628E-016
 chl          42   3.2702194965701379E-005   8.6171801662145739E-004   3.7949995630725070E-002
 chl2c          43   2.1185090152268007E-002   2.1185090152268007E-002  0.29539925000000000        2.3049967649767109E-004   1.7024993610948156E-016
 chl          43   1.8256672457024949E-005   8.6176987333095906E-004   2.1185090152268007E-002
 chl2c          44   3.7536352708156646E-002   3.7536352708156646E-002  0.62417262500000004        2.3049967649767109E-004   1.2027148477700759E-016
 chl          44   3.2345751406869068E-005   8.6171801662126700E-004   3.7536352708156646E-002
 chl2c          45   4.6544927192009838E-002   4.6544927192009838E-002  0.37662252499999999        8.8206449399160546E-005   1.5842892762845506E-006
 chl          45   4.0751059647391007E-005   8.7552096664116302E-004   4.6544927192009838E-002
 chl2c          46   3.7083195475449568E-002   3.7083195475449568E-002  0.51876034999999998        2.3049967649767109E-004   3.6949712446492051E-006
 chl          46   3.3123264315616352E-005   8.9321494253495929E-004   3.7083195475449568E-002
 chl2c          47   3.7519784612651236E-002   3.7519784612651236E-002  0.61962282499999999        2.3049967649767109E-004   1.5339296602255279E-016
 chl          47   3.2331474380482568E-005   8.6171801662157654E-004   3.7519784612651236E-002
 chl2c          48   3.7823212136301673E-002   3.7823212136301673E-002  0.71424949999999998        2.3049967649767109E-004   1.4755470727463779E-016
 chl          48   3.2592943344348954E-005   8.6171801662152190E-004   3.7823212136301673E-002
 chl2c          49   3.7152990741888416E-002   3.7152990741888416E-002  0.53276120000000005        2.3049967649767109E-004   1.3737323044338964E-016
 chl          49   3.2015401493654320E-005   8.6171801662142692E-004   3.7152990741888416E-002
 chl2c          50   2.1533072915600981E-002   2.1533072915600981E-002  0.38132569999999999        2.3049967649767109E-004   1.8957237647432106E-006
 chl          50   1.8912339858534010E-005   8.7829265858435765E-004   2.1533072915600981E-002
 chl2c          51   2.0700971146093840E-002   2.0700971146093840E-002  0.22275920000000002        2.3049967649767109E-004   1.8159761775614365E-016
 chl          51   1.7839473282399321E-005   8.6176987333106509E-004   2.0700971146093840E-002
 chl2c          52   3.7581825176985564E-002   3.7581825176985564E-002  0.63698869999999996        2.3049967649767109E-004   1.6318572678124001E-016
 chl          52   3.2384935860073390E-005   8.6171801682227353E-004   3.7581825176985564E-002
 chl2c          53   3.7925801262726190E-002   3.7925801262726190E-002  0.75269794999999995        2.3049967649767109E-004   1.4623454884167272E-016
 chl          53   3.2681346250506085E-005   8.6171801682211513E-004   3.7925801262726190E-002
 chl2c          54   3.7082433371327092E-002   3.7082433371327092E-002  0.51861124999999997        2.3049967649767109E-004   1.2007918587143925E-016
 chl          54   3.1954600936230200E-005   8.6171801662126516E-004   3.7082433371327092E-002
 chl2c          55   3.7357235588660491E-002   3.7357235588660491E-002  0.57808280000000001        2.3049967649767109E-004   3.7475468710275438E-006
 chl          55   3.3382836451077476E-005   8.9361099463180268E-004   3.7357235588660491E-002
 chl2c          56   3.7507394187257688E-002   3.7507394187257688E-002  0.61626080000000005        2.3049967649767109E-004   1.6361426314239986E-016
 chl          56   3.2320797335215107E-005   8.6171801682227733E-004   3.7507394187257688E-002
 chl2c          57   3.7727617852646313E-002   3.7727617852646313E-002  0.68163462500000005        2.3049967649767109E-004   3.7385100670710682E-006
 chl          57   3.3714806230633554E-005   8.9363729144825157E-004   3.7727617852646313E-002
 chl2c          58   3.7765358178394853E-002   3.7765358178394853E-002  0.69416802499999997        2.3049967649767109E-004   9.1731907384608346E-007
 chl          58   3.2867385241425981E-005   8.7030513747991020E-004   3.7765358178394853E-002
 chl2c          59   3.7173699120809672E-002   3.7173699120809672E-002  0.53705127500000005        2.3049967649767109E-004   1.6641451820783237E-016
 chl          59   3.2033246276875876E-005   8.6171801662169819E-004   3.7173699120809672E-002
 chl2c          60   3.7607757740906807E-002   3.7607757740906807E-002  0.64452155000000000        2.3049967649767109E-004   3.6258242305049884E-007
 chl          60   3.2534603963579531E-005   8.6510352964199485E-004   3.7607757740906807E-002
 chl2c          61   3.7805373434125003E-002   3.7805373434125003E-002  0.70794139999999994        2.3049967649767109E-004   1.4313658241221188E-016
 chl          61   3.2577571413288604E-005   8.6171801662148048E-004   3.7805373434125003E-002
 chl2c          62   3.7956103087269030E-002   3.7956103087269030E-002  0.76481592499999995        2.3049967649767109E-004   1.1693847997333498E-016
 chl          62   3.2707457871032637E-005   8.6171801662123589E-004   3.7956103087269030E-002
 chl2c          63   3.7855601011927406E-002   3.7855601011927406E-002  0.72597904999999996        2.3049967649767109E-004   1.9170918551034748E-006
 chl          63   3.3296055824364805E-005   8.7955427821299165E-004   3.7855601011927406E-002
 chl2c          64   2.5708982294816416E-002   2.5708982294816416E-002  0.48435739999999999        1.3271966114418798E-004   9.7471891830957342E-017
 chl          64   2.2155226415654340E-005   8.6176987333027937E-004   2.5708982294816416E-002
 chl2c          65   3.7953597170552002E-002   3.7953597170552002E-002  0.76379975000000000        2.3049967649767109E-004   1.2914494385636861E-016
 chl          65   3.2705298485067459E-005   8.6171801682195575E-004   3.7953597170552002E-002
 chl2c          66   3.1840477731474713E-002   3.1840477731474713E-002  0.35213202499999996        1.3455660363830964E-004   7.6103447652347433E-017
 chl          66   2.7439164461422141E-005   8.6176987333007825E-004   3.1840477731474713E-002
 chl2c          67   3.7937587124568600E-002   3.7937587124568600E-002  0.75736760000000003        2.3049967649767109E-004   1.3659621333436988E-016
 chl          67   3.2691502332385557E-005   8.6171801662141944E-004   3.7937587124568600E-002
 chl2c          68   3.7855407263856986E-002   3.7855407263856986E-002  0.72590779999999999        2.3049967649767109E-004   5.9020076793102972E-007
 chl          68   3.2829507039610717E-005   8.6723428467655602E-004   3.7855407263856986E-002
 chl2c          69   2.3659052105356567E-002   2.1732330561541505E-002  0.45524217500000003        2.3049967649767109E-004   2.8761776134193720E-006
 chl          69   2.0933648229985922E-005   8.8480502670884283E-004   2.3659052105356567E-002
 chl2c          70   3.2658010878182209E-002   3.2658010878182209E-002  0.48694062500000002        1.3455660363830964E-004   9.5869780293752026E-017
 chl          70   2.8143689897709427E-005   8.6176987333026278E-004   3.2658010878182209E-002
 chl2c          71   4.3481058864416305E-002   4.3481058864416305E-002  0.23986107500000001        8.8206449399160546E-005   8.3740512415839561E-017
 chl          71   3.7470666589848815E-005   8.6176987333014959E-004   4.3481058864416305E-002
 chl2c          72   3.7549776402781669E-002   3.7549776402781669E-002  0.62790522500000001        2.3049967649767109E-004   1.6412720841591682E-016
 chl          72   3.2357318853925151E-005   8.6171801682228221E-004   3.7549776402781669E-002
 chl2c          73   3.1852614277819484E-002   3.1852614277819484E-002  0.35362212500000001        1.3455660363830964E-004   9.2320516168499767E-017
 chl          73   2.7449623371433158E-005   8.6176987333022961E-004   3.1852614277819484E-002
 chl2c          74   3.7616827685877569E-002   3.7616827685877569E-002  0.64719590000000005        2.3049967649767109E-004   3.9766818659908017E-007
 chl          74   3.2554772273210469E-005   8.6543109230426834E-004   3.7616827685877569E-002
 chl2c          75   3.7826830779512356E-002   3.7826830779512356E-002  0.71554212500000003        2.3049967649767109E-004   1.2958142622124887E-016
 chl          75   3.2596061601981252E-005   8.6171801682195976E-004   3.7826830779512356E-002
 chl2c          76   3.7257729557919804E-002   3.7257729557919804E-002  0.55513977500000000        2.3049967649767109E-004   3.4693917670666768E-006
 chl          76   3.3224909352707418E-005   8.9175883090398525E-004   3.7257729557919804E-002
 chl2c          77   3.7138172437479272E-002   3.7138172437479272E-002  0.52973029999999999        2.3049967649767109E-004   1.1394050549048767E-016
 chl          77   3.2002634033473831E-005   8.6171806346553722E-004   3.7138172437479272E-002
 chl2c          78   4.7564070088857838E-002   4.7515248899399322E-002  0.45117492500000000        8.8206449399160546E-005   2.3449385823426517E-006
 chl          78   4.1862683324018043E-005   8.8013248752285861E-004   4.7564070088857838E-002
 prod   4.0063990660448596E-007   185.26848186974291        10.000000000000000     
 chl2c           1   3.7477407714772232E-002   3.7477407714772232E-002  0.60826437499999997        1.9343532425107596E-004   1.4519003314919879E-016
 chl           1   3.2623481134720934E-005   8.7048392949179204E-004   3.7477407714772232E-002
 chl2c           2   3.2640259920490348E-002   3.2640259920490348E-002  0.48302390000000001        1.1516040417841868E-004   1.7071953591635667E-006
 chl           2   2.8884481696248701E-005   8.8493418148659082E-004   3.2640259920490348E-002
 chl2c           3   3.7922212503796585E-002   3.7922212503796585E-002  0.75128689999999998        1.9343532425107596E-004   1.5652838558163915E-016
 chl           3   3.3010676555331673E-005   8.7048392949189894E-004   3.7922212503796585E-002
 chl2c           4   3.7976509103863923E-002   3.7976509103863923E-002  0.77318742499999993        1.9343532425107596E-004   2.8674680843097281E-006
 chl           4   3.4015653012534561E-005   8.9570247016394766E-004   3.7976509103863923E-002
 chl2c           5   4.6465155082837224E-002   2.5710500362372445E-002  0.48489679999999996        1.0716972746805269E-004   2.7537020430394619E-006
 chl           5   4.1467624591999155E-005   8.9244562980735640E-004   4.6465155082837224E-002
 chl2c           6   3.1261039902252048E-002   3.1261039902252048E-002  0.29222855000000003        1.1516040417841868E-004   1.0191949551666411E-016
 chl           6   2.7213953126641379E-005   8.7053895877215793E-004   3.1261039902252048E-002
 chl2c           7   4.3064391842467263E-002   4.3064391842467263E-002  0.22770740000000000        7.6252457576663071E-005   1.5114423879047976E-006
 chl           7   3.8035695954351526E-005   8.8322844761140303E-004   4.3064391842467263E-002
 chl2c           8   4.7969800906495587E-002   4.7969800906495587E-002  0.49578364999999996        7.6252457576663071E-005   7.3357525601692463E-017
 chl           8   4.1759580533640980E-005   8.7053895877200354E-004   4.7969800906495587E-002
 chl2c           9   2.4803669054600401E-002   2.4803669054600401E-002  0.28700202499999999        1.0716972746805269E-004   5.3197385930592605E-007
 chl           9   2.1716392352647059E-005   8.7553145080442301E-004   2.4803669054600401E-002
 chl2c          10   5.3883748210629599E-002   2.5387016219684602E-002  0.39094662499999999        1.0716972746805269E-004   3.3489331149709330E-006
 chl          10   4.8321151458283354E-005   8.9676670727132312E-004   5.3883748210629599E-002
 chl2c          11   2.1820572217820047E-002   2.1820572217820047E-002  0.49737575000000001        1.9343532425107596E-004   1.4388588948297522E-016
 chl          11   1.8995658218322414E-005   8.7053895877255540E-004   2.1820572217820047E-002
 chl2c          12   4.5290941298723353E-002   4.5290941298723353E-002  0.30768942500000002        7.6252457576663071E-005   7.2733373674538808E-017
 chl          12   3.9427528879989086E-005   8.7053895877188265E-004   4.5290941298723353E-002
 chl2c          13   3.7935816987997487E-002   3.7935816987997487E-002  0.75666275000000005        1.9343532425107596E-004   1.3025920822443354E-016
 chl          13   3.3022519032516913E-005   8.7048392928943394E-004   3.7935816987997487E-002
 chl2c          14   4.6856526101924839E-002   4.6856526101924839E-002  0.39804095000000000        7.6252457576663071E-005   8.0736137899059032E-017
 chl          14   4.0790431444440728E-005   8.7053895877195811E-004   4.6856526101924839E-002
 chl2c          15   3.4417174382166009E-002   2.0954299823745293E-002  0.25607262500000000        1.9343532425107596E-004   3.8456144464574878E-006
 chl          15   3.1001128440135592E-005   9.0074589203346944E-004   3.4417174382166009E-002
 chl2c          16   3.7823443882273475E-002   3.7823443882273475E-002  0.71433214999999994        1.9343532425107596E-004   1.6292387796757779E-016
 chl          16   3.2924700057560022E-005   8.7048392949195933E-004   3.7823443882273475E-002
 chl2c          17   3.7542254757581245E-002   3.7542254757581245E-002  0.62580860000000005        1.9343532425107596E-004   1.6284268140193006E-016
 chl          17   3.2679929443367495E-005   8.7048392949195847E-004   3.7542254757581245E-002
 chl2c          18   2.5694475239060960E-002   2.5694475239060960E-002  0.47925950000000000        1.0716972746805269E-004   1.5016754936026615E-016
 chl          18   2.2368041720820859E-005   8.7053895877261471E-004   2.5694475239060960E-002
 chl2c          19   3.7570220750293731E-002   3.7570220750293731E-002  0.63367130000000005        1.9343532425107596E-004   1.3388999077976155E-006
 chl          19   3.3178893240087114E-005   8.8311680308207174E-004   3.7570220750293731E-002
 chl2c          20   3.7020645196759419E-002   3.7020645196759419E-002  0.50678202500000002        1.9343532425107596E-004   1.4338312185794693E-016
 chl          20   3.2225876695709725E-005   8.7048392928955754E-004   3.7020645196759419E-002
 chl2c          21   3.7838475073783531E-002   3.7838475073783531E-002  0.71973185000000006        1.9343532425107596E-004   4.5760415828292284E-007
 chl          21   3.3101212515633692E-005   8.7480302657777932E-004   3.7838475073783531E-002
 chl2c          22   3.7613353106285476E-002   3.7613353106285476E-002  0.64616892500000001        1.9343532425107596E-004   3.6443098735986169E-006
 chl          22   3.3873390990734783E-005   9.0056823423898045E-004   3.7613353106285476E-002
 chl2c          23   3.2286562315070731E-002   3.2286562315070731E-002  0.41564179999999995        1.1516040417841868E-004   9.6175309031808157E-017
 chl          23   2.8106710340092314E-005   8.7053895877210361E-004   3.2286562315070731E-002
 chl2c          24   3.7348402796863071E-002   3.7348402796863071E-002  0.57597492500000003        1.9343532425107596E-004   1.1648389691102421E-016
 chl          24   3.2511184419292995E-005   8.7048392928930395E-004   3.7348402796863071E-002
 chl2c          25   4.5426679235459781E-002   4.5426679235459781E-002  0.31406487500000002        7.6252457576663071E-005   7.6429316388619271E-017
 chl          25   3.9545694042103033E-005   8.7053895877191735E-004   4.5426679235459781E-002
 chl2c          26   4.7955660680174553E-002   4.7955660680174553E-002  0.49427735000000000        7.6252457576663071E-005   7.0263143975834984E-017
 chl          26   4.1747270915735753E-005   8.7053895877185934E-004   4.7955660680174553E-002
 chl2c          27   4.5333133499525620E-002   4.5333133499525620E-002  0.30964730000000001        7.6252457576663071E-005   8.0123206992675957E-017
 chl          27   3.9464258834546949E-005   8.7053895877195247E-004   4.5333133499525620E-002
 chl2c          28   3.1209236063453518E-002   3.1209236063453518E-002  0.28776342500000002        1.1516040417841868E-004   7.9686153964326590E-017
 chl          28   2.7168855866746765E-005   8.7053895877194835E-004   3.1209236063453518E-002
 chl2c          29   3.7743217595736761E-002   3.7743217595736761E-002  0.68676297499999994        1.9343532425107596E-004   3.3274300197679618E-006
 chl          29   3.3920006264433573E-005   8.9870467928163513E-004   3.7743217595736761E-002
 chl2c          30   2.5380056985171612E-002   2.5380056985171612E-002  0.38930277499999999        1.0716972746805269E-004   1.6454974353095182E-016
 chl          30   2.2094328381464370E-005   8.7053895877275056E-004   2.5380056985171612E-002
 chl2c          31   3.7576959810037038E-002   3.7576959810037038E-002  0.63559385000000002        1.9343532425107596E-004   3.4743761635781239E-006
 chl          31   3.3802943427830133E-005   8.9956568063819680E-004   3.7576959810037038E-002
 chl2c          32   3.3710581857956723E-002   2.0893126428578448E-002  0.24722667500000001        1.9343532425107596E-004   3.7751720810472087E-006
 chl          32   3.0344913382564582E-005   9.0015988185627419E-004   3.3710581857956723E-002
 chl2c          33   3.7458922634011876E-002   3.7458922634011876E-002  0.60343137499999999        1.9343532425107596E-004   1.6662100599733757E-006
 chl          33   3.3192017469242202E-005   8.8609108685642178E-004   3.7458922634011876E-002
 chl2c          34   4.2832877737835007E-002   2.5350269098008315E-002  0.38241020000000003        1.0716972746805269E-004   2.5847001765618960E-006
 chl          34   3.8162287587935059E-005   8.9095782500333068E-004   4.2832877737835007E-002
 chl2c          35   2.5740370148566064E-002   2.5740370148566064E-002  0.49574644999999995        1.0716972746805269E-004   1.1898154168609469E-016
 chl          35   2.2407995027546819E-005   8.7053895877232034E-004   2.5740370148566064E-002
 chl2c          36   3.7770393924465726E-002   3.7770393924465726E-002  0.69587337500000002        1.9343532425107596E-004   1.2410281737952393E-016
 chl          36   3.2878520921814317E-005   8.7048392949159309E-004   3.7770393924465726E-002
 chl2c          37   2.1353674699533250E-002   2.1353674699533250E-002  0.33194060000000003        1.9343532425107596E-004   1.0897389700078086E-016
 chl          37   1.8589205738892507E-005   8.7053895877222624E-004   2.1353674699533250E-002
 chl2c          38   2.1543295686358745E-002   2.1543295686358745E-002  0.38455722500000000        1.9343532425107596E-004   1.6794666920499972E-016
 chl          38   1.8754278195336918E-005   8.7053895877278243E-004   2.1543295686358745E-002
 chl2c          39   2.5670077108751441E-002   2.5670077108751441E-002  0.47091117500000002        1.0716972746805269E-004   1.3532522936273429E-016
 chl          39   2.2346802197861617E-005   8.7053895877247474E-004   2.5670077108751441E-002
 chl2c          40   3.7687445774703773E-002   3.7687445774703773E-002  0.66875547499999999        1.9343532425107596E-004   1.6323737696338937E-016
 chl          40   3.2806315890479387E-005   8.7048392949196226E-004   3.7687445774703773E-002
 chl2c          41   2.5582381488167241E-002   2.5582381488167241E-002  0.44304987499999998        1.0716972746805269E-004   9.8161431990201514E-017
 chl          41   2.2270459743620369E-005   8.7053895877212400E-004   2.5582381488167241E-002
 chl2c          42   3.7949995630725070E-002   3.7949995630725070E-002  0.76234377499999995        1.9343532425107596E-004   1.3776366085909844E-016
 chl          42   3.3034861313153093E-005   8.7048392928950474E-004   3.7949995630725070E-002
 chl2c          43   2.1185090152268007E-002   2.1185090152268007E-002  0.29539925000000000        1.9343532425107596E-004   1.6723073722800226E-016
 chl          43   1.8442446322662775E-005   8.7053895877277571E-004   2.1185090152268007E-002
 chl2c          44   3.7536352708156646E-002   3.7536352708156646E-002  0.62417262500000004        1.9343532425107596E-004   1.1773991733329232E-016
 chl          44   3.2674791796585836E-005   8.7048392928931555E-004   3.7536352708156646E-002
 chl2c          45   4.6544927192009838E-002   4.6544927192009838E-002  0.37662252499999999        7.6252457576663071E-005   1.3538746771998324E-006
 chl          45   4.1072590705188108E-005   8.8242893872737349E-004   4.6544927192009838E-002
 chl2c          46   3.7083195475449568E-002   3.7083195475449568E-002  0.51876034999999998        1.9343532425107596E-004   3.5519646824478323E-006
 chl          46   3.3371335943221195E-005   8.9990453938399784E-004   3.7083195475449568E-002
 chl2c          47   3.7519784612651236E-002   3.7519784612651236E-002  0.61962282499999999        1.9343532425107596E-004   1.5026200014591788E-016
 chl          47   3.2660369535720968E-005   8.7048392928962260E-004   3.7519784612651236E-002
 chl2c          48   3.7823212136301673E-002   3.7823212136301673E-002  0.71424949999999998        1.9343532425107596E-004   1.4452642442592019E-016
 chl          48   3.2924498318760772E-005   8.7048392928956839E-004   3.7823212136301673E-002
 chl2c          49   3.7152990741888416E-002   3.7152990741888416E-002  0.53276120000000005        1.9343532425107596E-004   1.3452705064353880E-016
 chl          49   3.2341081365854491E-005   8.7048392928947428E-004   3.7152990741888416E-002
 chl2c          50   2.1533072915600981E-002   2.1533072915600981E-002  0.38132569999999999        1.9343532425107596E-004   2.1237433421826398E-006
 chl          50   1.9118926481784306E-005   8.8788658064369464E-004   2.1533072915600981E-002
 chl2c          51   2.0700971146093840E-002   2.0700971146093840E-002  0.22275920000000002        1.9343532425107596E-004   1.7844152393133730E-016
 chl          51   1.8021001867107999E-005   8.7053895877288164E-004   2.0700971146093840E-002
 chl2c          52   3.7581825176985564E-002   3.7581825176985564E-002  0.63698869999999996        1.9343532425107596E-004   1.5988535539071977E-016
 chl          52   3.2714374857541159E-005   8.7048392949193049E-004   3.7581825176985564E-002
 chl2c          53   3.7925801262726190E-002   3.7925801262726190E-002  0.75269794999999995        1.9343532425107596E-004   1.4322966019499907E-016
 chl          53   3.3013800512301965E-005   8.7048392949177361E-004   3.7925801262726190E-002
 chl2c          54   3.7082433371327092E-002   3.7082433371327092E-002  0.51861124999999997        1.9343532425107596E-004   1.1755121868495614E-016
 chl          54   3.2279662308681986E-005   8.7048392928931382E-004   3.7082433371327092E-002
 chl2c          55   3.7357235588660491E-002   3.7357235588660491E-002  0.57808280000000001        1.9343532425107596E-004   3.6664193564004247E-006
 chl          55   3.3645020021940500E-005   9.0062927547436610E-004   3.7357235588660491E-002
 chl2c          56   3.7507394187257688E-002   3.7507394187257688E-002  0.61626080000000005        1.9343532425107596E-004   1.6030655914674950E-016
 chl          56   3.2649583877127018E-005   8.7048392949193450E-004   3.7507394187257688E-002
 chl2c          57   3.7727617852646313E-002   3.7727617852646313E-002  0.68163462500000005        1.9343532425107596E-004   3.5043285748229020E-006
 chl          57   3.3946570749066752E-005   8.9978039116205824E-004   3.7727617852646313E-002
 chl2c          58   3.7765358178394853E-002   3.7765358178394853E-002  0.69416802499999997        1.9343532425107596E-004   1.1734786110415689E-006
 chl          58   3.3292931388305970E-005   8.8157329876332243E-004   3.7765358178394853E-002
 chl2c          59   3.7173699120809672E-002   3.7173699120809672E-002  0.53705127500000005        1.9343532425107596E-004   1.6305906560667217E-016
 chl          59   3.2359107676917085E-005   8.7048392928974348E-004   3.7173699120809672E-002
 chl2c          60   3.7607757740906807E-002   3.7607757740906807E-002  0.64452155000000000        1.9343532425107596E-004   5.3747732837867229E-007
 chl          60   3.2927839511770334E-005   8.7555976452044569E-004   3.7607757740906807E-002
 chl2c          61   3.7805373434125003E-002   3.7805373434125003E-002  0.70794139999999994        1.9343532425107596E-004   1.4018684655301007E-016
 chl          61   3.2908970015195050E-005   8.7048392928952751E-004   3.7805373434125003E-002
 chl2c          62   3.7956103087269030E-002   3.7956103087269030E-002  0.76481592499999995        1.9343532425107596E-004   1.1446951168501710E-016
 chl          62   3.3040177755915099E-005   8.7048392928928487E-004   3.7956103087269030E-002
 chl2c          63   3.7855601011927406E-002   3.7855601011927406E-002  0.72597904999999996        1.9343532425107596E-004   2.0310059044607706E-006
 chl          63   3.3663521517527798E-005   8.8926131451251339E-004   3.7855601011927406E-002
 chl2c          64   2.5708982294816416E-002   2.5708982294816416E-002  0.48435739999999999        1.0716972746805269E-004   9.5514247334679675E-017
 chl          64   2.2380670678019810E-005   8.7053895877209895E-004   2.5708982294816416E-002
 chl2c          65   3.7953597170552002E-002   3.7953597170552002E-002  0.76379975000000000        1.9343532425107596E-004   1.2644876342374115E-016
 chl          65   3.3037996403363954E-005   8.7048392949161510E-004   3.7953597170552002E-002
 chl2c          66   3.1840477731474713E-002   3.1840477731474713E-002  0.35213202499999996        1.1516040417841868E-004   7.6038290334121345E-017
 chl          66   2.7718376331158305E-005   8.7053895877191377E-004   3.1840477731474713E-002
 chl2c          67   3.7937587124568600E-002   3.7937587124568600E-002  0.75736760000000003        1.9343532425107596E-004   1.3376408989672475E-016
 chl          67   3.3024059907955971E-005   8.7048392928946712E-004   3.7937587124568600E-002
 chl2c          68   3.7855407263856986E-002   3.7855407263856986E-002  0.72590779999999999        1.9343532425107596E-004   8.4274326399025374E-007
 chl          68   3.3254107487724949E-005   8.7845065979450724E-004   3.7855407263856986E-002
 chl2c          69   2.6989953445818008E-002   2.1732330561541505E-002  0.45524217500000003        1.9343532425107596E-004   2.7749220674848912E-006
 chl          69   2.4099939866687286E-005   8.9292261711631377E-004   2.6989953445818008E-002
 chl2c          70   3.2658010878182209E-002   3.2658010878182209E-002  0.48694062500000002        1.1516040417841868E-004   9.5758881151204398E-017
 chl          70   2.8430070785460651E-005   8.7053895877209982E-004   3.2658010878182209E-002
 chl2c          71   4.3481058864416305E-002   4.3481058864416305E-002  0.23986107500000001        7.6252457576663071E-005   8.3669968143151682E-017
 chl          71   3.7851955710132392E-005   8.7053895877198576E-004   4.3481058864416305E-002
 chl2c          72   3.7549776402781669E-002   3.7549776402781669E-002  0.62790522500000001        1.9343532425107596E-004   1.6081073638289342E-016
 chl          72   3.2686476914637087E-005   8.7048392949193938E-004   3.7549776402781669E-002
 chl2c          73   3.1852614277819484E-002   3.1852614277819484E-002  0.35362212500000001        1.1516040417841868E-004   9.2244170427066858E-017
 chl          73   2.7728941667581235E-005   8.7053895877206653E-004   3.1852614277819484E-002
 chl2c          74   3.7616827685877569E-002   3.7616827685877569E-002  0.64719590000000005        1.9343532425107596E-004   6.0687357037736981E-007
 chl          74   3.2960473361564230E-005   8.7621618805294775E-004   3.7616827685877569E-002
 chl2c          75   3.7826830779512356E-002   3.7826830779512356E-002  0.71554212500000003        1.9343532425107596E-004   1.2687722503995118E-016
 chl          75   3.2927648297164444E-005   8.7048392949161911E-004   3.7826830779512356E-002
 chl2c          76   3.7257729557919804E-002   3.7257729557919804E-002  0.55513977500000000        1.9343532425107596E-004   3.3495385472653577E-006
 chl          76   3.3484948636660815E-005   8.9873830300383898E-004   3.7257729557919804E-002
 chl2c          77   3.7138172437479272E-002   3.7138172437479272E-002  0.52973029999999999        1.9343532425107596E-004   6.9864529266402972E-009
 chl          77   3.2330616181394757E-005   8.7054946593891080E-004   3.7138172437479272E-002
 chl2c          78   5.2193375858688232E-002   4.7515248899399322E-002  0.45117492500000000        7.6252457576663071E-005   2.2502531591499328E-006
 chl          78   4.6360353117037580E-005   8.8824208732074810E-004   5.2193375858688232E-002
 prod   4.0024199408012997E-007   150.79261070054130        10.000000000000000     
 chl2c           1   3.7477407714772232E-002   3.7477407714772232E-002  0.60826437499999997        1.6347645956091072E-004   1.4225737421281024E-016
 chl           1   3.2271928311745253E-005   8.6110353622523457E-004   3.7477407714772232E-002
 chl2c           2   3.2640259920490348E-002   3.2640259920490348E-002  0.48302390000000001        9.9020159022538353E-005   1.6956672639892816E-006
 chl           2   2.8546666043699259E-005   8.7458451964650928E-004   3.2640259920490348E-002
 chl2c           3   3.7922212503796585E-002   3.7922212503796585E-002  0.75128689999999998        1.6347645956091072E-004   1.5340815846328739E-016
 chl           3   3.2654951288506914E-005   8.6110353622531025E-004   3.7922212503796585E-002
 chl2c           4   3.7976509103863923E-002   3.7976509103863923E-002  0.77318742499999993        1.6347645956091072E-004   3.0105791388602631E-006
 chl           4   3.3642814214908191E-005   8.8588485378939691E-004   3.7976509103863923E-002
 chl2c           5   5.3126997903877655E-002   2.5710500362372445E-002  0.48489679999999996        8.8426740639724121E-005   2.6379463019887605E-006
 chl           5   4.6841007097749893E-005   8.8167991691341251E-004   5.3126997903877655E-002
 chl2c           6   3.1261039902252048E-002   3.1261039902252048E-002  0.29222855000000003        9.9020159022538353E-005   1.0363137140579988E-016
 chl           6   2.6917136625797186E-005   8.6104418502911263E-004   3.1261039902252048E-002
 chl2c           7   4.3064391842467263E-002   4.3064391842467263E-002  0.22770740000000000        6.6133280413846181E-005   1.5827418462189259E-006
 chl           7   3.7613749212538784E-005   8.7343040510435318E-004   4.3064391842467263E-002
 chl2c           8   4.7969800906495587E-002   4.7969800906495587E-002  0.49578364999999996        6.6133280413846181E-005   7.4726969517973692E-017
 chl           8   4.1304118137760557E-005   8.6104418524212735E-004   4.7969800906495587E-002
 chl2c           9   2.4803669054600401E-002   2.4803669054600401E-002  0.28700202499999999        8.8426740639724121E-005   8.8549432504500761E-007
 chl           9   2.1545435515550643E-005   8.6863904965521846E-004   2.4803669054600401E-002
 chl2c          10   6.1505104716279110E-002   2.5387016219684602E-002  0.39094662499999999        8.8426740639724121E-005   3.2270368067057911E-006
 chl          10   5.4482199226494227E-005   8.8581589248272485E-004   6.1505104716279110E-002
 chl2c          11   2.1820572217820047E-002   2.1820572217820047E-002  0.49737575000000001        1.6347645956091072E-004   1.4132877642902152E-016
 chl          11   1.8788476822169470E-005   8.6104418502946608E-004   2.1820572217820047E-002
 chl2c          12   4.5290941298723353E-002   4.5290941298723353E-002  0.30768942500000002        6.6133280413846181E-005   7.4092972761343844E-017
 chl          12   3.8997501639748159E-005   8.6104418502883724E-004   4.5290941298723353E-002
 chl2c          13   3.7935816987997487E-002   3.7935816987997487E-002  0.75666275000000005        1.6347645956091072E-004   1.2758239739073412E-016
 chl          13   3.2666666150419760E-005   8.6110353602652525E-004   3.7935816987997487E-002
 chl2c          14   4.6856526101924839E-002   4.6856526101924839E-002  0.39804095000000000        6.6133280413846181E-005   8.2153804536154638E-017
 chl          14   4.0345539330717843E-005   8.6104418502891259E-004   4.6856526101924839E-002
 chl2c          15   3.8550026480475931E-002   2.0954299823745293E-002  0.25607262500000000        1.6347645956091072E-004   3.7094428064989812E-006
 chl          15   3.4295929594095185E-005   8.8964736798468149E-004   3.8550026480475931E-002
 chl2c          16   3.7823443882273475E-002   3.7823443882273475E-002  0.71433214999999994        1.6347645956091072E-004   1.5970038747261819E-016
 chl          16   3.2569901279247488E-005   8.6110353622536901E-004   3.7823443882273475E-002
 chl2c          17   3.7542254757581245E-002   3.7542254757581245E-002  0.62580860000000005        1.6347645956091072E-004   1.5962049052192290E-016
 chl          17   3.2327768329626868E-005   8.6110353622536825E-004   3.7542254757581245E-002
 chl2c          18   2.5694475239060960E-002   2.5694475239060960E-002  0.47925950000000000        8.8426740639724121E-005   1.4753515124708732E-016
 chl          18   2.2124078491978532E-005   8.6104418502952419E-004   2.5694475239060960E-002
 chl2c          19   3.7570220750293731E-002   3.7570220750293731E-002  0.63367130000000005        1.6347645956091072E-004   1.5349031276226299E-006
 chl          19   3.2882999669201545E-005   8.7524105561568883E-004   3.7570220750293731E-002
 chl2c          20   3.7020645196759419E-002   3.7020645196759419E-002  0.50678202500000002        1.6347645956091072E-004   1.4048088832679489E-016
 chl          20   3.1878608484917396E-005   8.6110353602664570E-004   3.7020645196759419E-002
 chl2c          21   3.7838475073783531E-002   3.7838475073783531E-002  0.71973185000000006        1.6347645956091072E-004   6.9402442919089215E-007
 chl          21   3.2828258638241342E-005   8.6758936701935088E-004   3.7838475073783531E-002
 chl2c          22   4.0844483174029084E-002   3.7613353106285476E-002  0.64616892500000001        1.6347645956091072E-004   3.5638259940930031E-006
 chl          22   3.6333979061718619E-005   8.8956882884055042E-004   4.0844483174029084E-002
 chl2c          23   3.2286562315070731E-002   3.2286562315070731E-002  0.41564179999999995        9.9020159022538353E-005   9.7883450835833611E-017
 chl          23   2.7800156735970002E-005   8.6104418502905885E-004   3.2286562315070731E-002
 chl2c          24   3.7348402796863071E-002   3.7348402796863071E-002  0.57597492500000003        1.6347645956091072E-004   1.1405215501928184E-016
 chl          24   3.2160841713317037E-005   8.6110353602639894E-004   3.7348402796863071E-002
 chl2c          25   4.5426679235459781E-002   4.5426679235459781E-002  0.31406487500000002        6.6133280413846181E-005   7.7846761528907371E-017
 chl          25   3.9114378000864461E-005   8.6104418502887226E-004   4.5426679235459781E-002
 chl2c          26   4.7955660680174553E-002   4.7955660680174553E-002  0.49427735000000000        6.6133280413846181E-005   7.1583476402628092E-017
 chl          26   4.1291942767879241E-005   8.6104418502881404E-004   4.7955660680174553E-002
 chl2c          27   4.5333133499525620E-002   4.5333133499525620E-002  0.30964730000000001        6.6133280413846181E-005   8.1531887478234264E-017
 chl          27   3.9033830988905668E-005   8.6104418502890674E-004   4.5333133499525620E-002
 chl2c          28   3.1209236063453518E-002   3.1209236063453518E-002  0.28776342500000002        9.9020159022538353E-005   8.1088410495535272E-017
 chl          28   2.6872531231630974E-005   8.6104418502890273E-004   3.1209236063453518E-002
 chl2c          29   3.7743217595736761E-002   3.7743217595736761E-002  0.68676297499999994        1.6347645956091072E-004   3.1978395029390729E-006
 chl          29   3.3474460404839936E-005   8.8690001905457588E-004   3.7743217595736761E-002
 chl2c          30   2.5380056985171612E-002   2.5380056985171612E-002  0.38930277499999999        8.8426740639724121E-005   1.6175545933249173E-016
 chl          30   2.1853350482803338E-005   8.6104418502965679E-004   2.5380056985171612E-002
 chl2c          31   3.7717932010214728E-002   3.7576959810037038E-002  0.63559385000000002        1.6347645956091072E-004   3.2774926530275272E-006
 chl          31   3.3467650957026723E-005   8.8731404860592706E-004   3.7717932010214728E-002
 chl2c          32   3.8779771689074101E-002   2.0893126428578448E-002  0.24722667500000001        1.6347645956091072E-004   3.7595023111258045E-006
 chl          32   3.4512198417139446E-005   8.8995362566466555E-004   3.8779771689074101E-002
 chl2c          33   3.7458922634011876E-002   3.7458922634011876E-002  0.60343137499999999        1.6347645956091072E-004   1.8424089039474224E-006
 chl          33   3.2880986152285981E-005   8.7778782303874294E-004   3.7458922634011876E-002
 chl2c          34   4.7494897472443599E-002   2.5350269098008315E-002  0.38241020000000003        8.8426740639724121E-005   2.3977011563497821E-006
 chl          34   4.1780040300920475E-005   8.7967429185758594E-004   4.7494897472443599E-002
 chl2c          35   2.5740370148566064E-002   2.5740370148566064E-002  0.49574644999999995        8.8426740639724121E-005   1.1675102562768051E-016
 chl          35   2.2163596036922960E-005   8.6104418502923677E-004   2.5740370148566064E-002
 chl2c          36   3.7770393924465726E-002   3.7770393924465726E-002  0.69587337500000002        1.6347645956091072E-004   1.2153445532198520E-016
 chl          36   3.2524219772969167E-005   8.6110353622501263E-004   3.7770393924465726E-002
 chl2c          37   2.1353674699533250E-002   2.1353674699533250E-002  0.33194060000000003        1.6347645956091072E-004   1.0688756263097400E-016
 chl          37   1.8386457429037075E-005   8.6104418502914472E-004   2.1353674699533250E-002
 chl2c          38   2.1543295686358745E-002   2.1543295686358745E-002  0.38455722500000000        1.6347645956091072E-004   1.6511624938901320E-016
 chl          38   1.8549729477114359E-005   8.6104418502968812E-004   2.1543295686358745E-002
 chl2c          39   2.5670077108751441E-002   2.5670077108751441E-002  0.47091117500000002        8.8426740639724121E-005   1.3287527321803127E-016
 chl          39   2.2103070623746416E-005   8.6104418502938726E-004   2.5670077108751441E-002
 chl2c          40   3.7687445774703773E-002   3.7687445774703773E-002  0.66875547499999999        1.6347645956091072E-004   1.6000887141799840E-016
 chl          40   3.2452792827899368E-005   8.6110353622537183E-004   3.7687445774703773E-002
 chl2c          41   2.5582381488167241E-002   2.5582381488167241E-002  0.44304987499999998        8.8426740639724121E-005   9.6239417452648827E-017
 chl          41   2.2027560819581097E-005   8.6104418502904530E-004   2.5582381488167241E-002
 chl2c          42   3.7949995630725070E-002   3.7949995630725070E-002  0.76234377499999995        1.6347645956091072E-004   1.3495699293059914E-016
 chl          42   3.2678875429811156E-005   8.6110353602659420E-004   3.7949995630725070E-002
 chl2c          43   2.1185090152268007E-002   2.1185090152268007E-002  0.29539925000000000        1.6347645956091072E-004   1.6440786724721269E-016
 chl          43   1.8241298684939941E-005   8.6104418502968162E-004   2.1185090152268007E-002
 chl2c          44   3.7536352708156646E-002   3.7536352708156646E-002  0.62417262500000004        1.6347645956091072E-004   1.1528546888743633E-016
 chl          44   3.2322686046528214E-005   8.6110353602641043E-004   3.7536352708156646E-002
 chl2c          45   4.6544927192009838E-002   4.6544927192009838E-002  0.37662252499999999        6.6133280413846181E-005   1.0882723119333774E-006
 chl          45   4.0523330353535236E-005   8.7062828966013933E-004   4.6544927192009838E-002
 chl2c          46   3.8478585405542332E-002   3.7083195475449568E-002  0.51876034999999998        1.6347645956091072E-004   3.3971521830430552E-006
 chl          46   3.4173465120816990E-005   8.8811646167987119E-004   3.8478585405542332E-002
 chl2c          47   3.7519784612651236E-002   3.7519784612651236E-002  0.61962282499999999        1.6347645956091072E-004   1.4724472343483887E-016
 chl          47   3.2308419200914469E-005   8.6110353602670859E-004   3.7519784612651236E-002
 chl2c          48   3.7823212136301673E-002   3.7823212136301673E-002  0.71424949999999998        1.6347645956091072E-004   1.4160492245086055E-016
 chl          48   3.2569701714455706E-005   8.6110353602665611E-004   3.7823212136301673E-002
 chl2c          49   3.7152990741888416E-002   3.7152990741888416E-002  0.53276120000000005        1.6347645956091072E-004   1.3177607481433250E-016
 chl          49   3.1992571701802328E-005   8.6110353602656450E-004   3.7152990741888416E-002
 chl2c          50   2.6449692447405918E-002   2.1533072915600981E-002  0.38132569999999999        1.6347645956091072E-004   2.3230860236379349E-006
 chl          50   2.3262053727096884E-005   8.7948295706471752E-004   2.6449692447405918E-002
 chl2c          51   2.0700971146093840E-002   2.0700971146093840E-002  0.22275920000000002        1.6347645956091072E-004   1.7550444627631628E-016
 chl          51   1.7824450829813464E-005   8.6104418502978494E-004   2.0700971146093840E-002
 chl2c          52   3.7581825176985564E-002   3.7581825176985564E-002  0.63698869999999996        1.6347645956091072E-004   1.5671069857948792E-016
 chl          52   3.2361842557704830E-005   8.6110353622534126E-004   3.7581825176985564E-002
 chl2c          53   3.7925801262726190E-002   3.7925801262726190E-002  0.75269794999999995        1.6347645956091072E-004   1.4033001749387935E-016
 chl          53   3.2658041581507231E-005   8.6110353622518817E-004   3.7925801262726190E-002
 chl2c          54   3.7082433371327092E-002   3.7082433371327092E-002  0.51861124999999997        1.6347645956091072E-004   1.1510017692140216E-016
 chl          54   3.1931814500513459E-005   8.6110353602640870E-004   3.7082433371327092E-002
 chl2c          55   4.0576026750808770E-002   3.7357235588660491E-002  0.57808280000000001        1.6347645956091072E-004   3.5669814645416386E-006
 chl          55   3.6093245324498320E-005   8.8952142964019766E-004   4.0576026750808770E-002
 chl2c          56   3.7507394187257688E-002   3.7507394187257688E-002  0.61626080000000005        1.6347645956091072E-004   1.5712510842764734E-016
 chl          56   3.2297749769245543E-005   8.6110353622534494E-004   3.7507394187257688E-002
 chl2c          57   3.7727617852646313E-002   3.7727617852646313E-002  0.68163462500000005        1.6347645956091072E-004   3.2269156541813580E-006
 chl          57   3.3466568902650304E-005   8.8705756704177585E-004   3.7727617852646313E-002
 chl2c          58   3.7765358178394853E-002   3.7765358178394853E-002  0.69416802499999997        1.6347645956091072E-004   1.4624401306757424E-006
 chl          58   3.3030205987099042E-005   8.7461651577808316E-004   3.7765358178394853E-002
 chl2c          59   3.7173699120809672E-002   3.7173699120809672E-002  0.53705127500000005        1.6347645956091072E-004   1.5983341197676200E-016
 chl          59   3.2010403760126529E-005   8.6110353602682622E-004   3.7173699120809672E-002
 chl2c          60   3.7607757740906807E-002   3.7607757740906807E-002  0.64452155000000000        1.6347645956091072E-004   7.4734734326817267E-007
 chl          60   3.2646893591179261E-005   8.6808933986693110E-004   3.7607757740906807E-002
 chl2c          61   3.7805373434125003E-002   3.7805373434125003E-002  0.70794139999999994        1.6347645956091072E-004   1.3733879419373024E-016
 chl          61   3.2554340744931749E-005   8.6110353602661643E-004   3.7805373434125003E-002
 chl2c          62   3.7956103087269030E-002   3.7956103087269030E-002  0.76481592499999995        1.6347645956091072E-004   1.1207433824131357E-016
 chl          62   3.2684134582229178E-005   8.6110353602638051E-004   3.7956103087269030E-002
 chl2c          63   3.7855601011927406E-002   3.7855601011927406E-002  0.72597904999999996        1.6347645956091072E-004   2.1299820160718643E-006
 chl          63   3.3314433829120712E-005   8.8003975471487349E-004   3.7855601011927406E-002
 chl2c          64   2.5708982294816416E-002   2.5708982294816416E-002  0.48435739999999999        8.8426740639724121E-005   9.3633831301400271E-017
 chl          64   2.2136569707965729E-005   8.6104418502902090E-004   2.5708982294816416E-002
 chl2c          65   3.7953597170552002E-002   3.7953597170552002E-002  0.76379975000000000        1.6347645956091072E-004   1.2383887147457069E-016
 chl          65   3.2681976736022779E-005   8.6110353622503410E-004   3.7953597170552002E-002
 chl2c          66   3.1840477731474713E-002   3.1840477731474713E-002  0.35213202499999996        9.9020159022538353E-005   7.7449666713011892E-017
 chl          66   2.7416058199227491E-005   8.6104418502886879E-004   3.1840477731474713E-002
 chl2c          67   3.7937587124568600E-002   3.7937587124568600E-002  0.75736760000000003        1.6347645956091072E-004   1.3102631162269039E-016
 chl          67   3.2668190421281621E-005   8.6110353602655745E-004   3.7937587124568600E-002
 chl2c          68   3.7855407263856986E-002   3.7855407263856986E-002  0.72590779999999999        1.6347645956091072E-004   1.1426957774029951E-006
 chl          68   3.3000696137950408E-005   8.7175646818250763E-004   3.7855407263856986E-002
 chl2c          69   3.0498219745142500E-002   2.1732330561541505E-002  0.45524217500000003        1.6347645956091072E-004   2.6718680074879252E-006
 chl          69   2.6908417472589454E-005   8.8229469449196951E-004   3.0498219745142500E-002
 chl2c          70   3.2658010878182209E-002   3.2658010878182209E-002  0.48694062500000002        9.9020159022538353E-005   9.7388461477964713E-017
 chl          70   2.8119990361274390E-005   8.6104418502905430E-004   3.2658010878182209E-002
 chl2c          71   4.3481058864416305E-002   4.3481058864416305E-002  0.23986107500000001        6.6133280413846181E-005   8.5197597216148776E-017
 chl          71   3.7439112894106734E-005   8.6104418502894067E-004   4.3481058864416305E-002
 chl2c          72   3.7549776402781669E-002   3.7549776402781669E-002  0.62790522500000001        1.6347645956091072E-004   1.5762116379936901E-016
 chl          72   3.2334245244906481E-005   8.6110353622534960E-004   3.7549776402781669E-002
 chl2c          73   3.1852614277819484E-002   3.1852614277819484E-002  0.35362212500000001        9.9020159022538353E-005   9.3896901825895995E-017
 chl          73   2.7426508301888859E-005   8.6104418502902177E-004   3.1852614277819484E-002
 chl2c          74   3.7616827685877569E-002   3.7616827685877569E-002  0.64719590000000005        1.6347645956091072E-004   8.6017812265663093E-007
 chl          74   3.2694396903532565E-005   8.6914285214451982E-004   3.7616827685877569E-002
 chl2c          75   3.7826830779512356E-002   3.7826830779512356E-002  0.71554212500000003        1.6347645956091072E-004   1.2425977533172512E-016
 chl          75   3.2572817748424198E-005   8.6110353622503800E-004   3.7826830779512356E-002
 chl2c          76   3.7257729557919804E-002   3.7257729557919804E-002  0.55513977500000000        1.6347645956091072E-004   3.2235456609864408E-006
 chl          76   3.3044927794788334E-005   8.8692811362586213E-004   3.7257729557919804E-002
 chl2c          77   3.7138172437479272E-002   3.7138172437479272E-002  0.52973029999999999        1.6347645956091072E-004   1.5053427366638464E-007
 chl          77   3.2031869609976163E-005   8.6250527442890794E-004   3.7138172437479272E-002
 chl2c          78   5.6836959064865911E-002   4.7515248899399322E-002  0.45117492500000000        6.6133280413846181E-005   2.1502911461159044E-006
 chl          78   4.9885851604573495E-005   8.7770092604075854E-004   5.6836959064865911E-002
 prod   4.0888569521114626E-007   124.76853003391390        10.000000000000000     
 chl2c           1   3.7477407714772232E-002   3.7477407714772232E-002  0.60826437499999997        1.3886292073777144E-004   1.3851531403514086E-016
 chl           1   3.1910974784850431E-005   8.5147230640160530E-004   3.7477407714772232E-002
 chl2c           2   3.6055188618659403E-002   3.2640259920490348E-002  0.48302390000000001        8.5386523525995137E-005   1.6634839132414728E-006
 chl           2   3.1165831328204054E-005   8.6439240847779137E-004   3.6055188618659403E-002
 chl2c           3   3.7922212503796585E-002   3.7922212503796585E-002  0.75128689999999998        1.3886292073777144E-004   1.4942037652993198E-016
 chl           3   3.2289713742473146E-005   8.5147230634922630E-004   3.7922212503796585E-002
 chl2c           4   4.2142523202482088E-002   3.7976509103863923E-002  0.77318742499999993        1.3886292073777144E-004   3.0946929384556819E-006
 chl           4   3.6914858080002756E-005   8.7595272600641443E-004   4.2142523202482088E-002
 chl2c           5   5.8950892071354635E-002   2.5710500362372445E-002  0.48489679999999996        7.4058173136803520E-005   2.4850106148843961E-006
 chl           5   5.1318477442123481E-005   8.7052927680902913E-004   5.8950892071354635E-002
 chl2c           6   3.1261039902252048E-002   3.1261039902252048E-002  0.29222855000000003        8.5386523525995137E-005   1.0536178961724652E-016
 chl           6   2.6616019946354122E-005   8.5141185416665239E-004   3.1261039902252048E-002
 chl2c           7   4.5382614317202565E-002   4.3064391842467263E-002  0.22770740000000000        5.7469436694820321E-005   1.6286504651437283E-006
 chl           7   3.9185597053577170E-005   8.6344953112856752E-004   4.5382614317202565E-002
 chl2c           8   4.7969800906495587E-002   4.7969800906495587E-002  0.49578364999999996        5.7469436694820321E-005   7.6108492909202840E-017
 chl           8   4.0842074196444086E-005   8.5141220986209392E-004   4.7969800906495587E-002
 chl2c           9   3.0991429931584078E-002   2.4803669054600401E-002  0.28700202499999999        7.4058173136803520E-005   1.2865054661946027E-006
 chl           9   2.6693816794385803E-005   8.6132898202226935E-004   3.0991429931584078E-002
 chl2c          10   6.8575599323640463E-002   2.5387016219684602E-002  0.39094662499999999        7.4058173136803520E-005   3.0794565315436798E-006
 chl          10   5.9974776943295187E-005   8.7457896882892766E-004   6.8575599323640463E-002
 chl2c          11   2.1820572217820047E-002   2.1820572217820047E-002  0.49737575000000001        1.3886292073777144E-004   1.3801485032122965E-016
 chl          11   1.8578293850958110E-005   8.5141185416695499E-004   2.1820572217820047E-002
 chl2c          12   4.5290941298723353E-002   4.5290941298723353E-002  0.30768942500000002        5.7469436694820321E-005   7.5464631680312360E-017
 chl          12   3.8561244308086557E-005   8.5141185416637635E-004   4.5290941298723353E-002
 chl2c          13   3.7935816987997487E-002   3.7935816987997487E-002  0.75666275000000005        1.3886292073777144E-004   1.2417394240282590E-016
 chl          13   3.2301297576612407E-005   8.5147230615416065E-004   3.7935816987997487E-002
 chl2c          14   4.6856526101924839E-002   4.6856526101924839E-002  0.39804095000000000        5.7469436694820321E-005   8.3588601266803278E-017
 chl          14   3.9894201768238552E-005   8.5141185416645138E-004   4.6856526101924839E-002
 chl2c          15   4.2606143683240269E-002   2.0954299823745293E-002  0.25607262500000000        1.3886292073777144E-004   3.5486403762671086E-006
 chl          15   3.7419259461192456E-005   8.7825971154277104E-004   4.2606143683240269E-002
 chl2c          16   3.7823443882273475E-002   3.7823443882273475E-002  0.71433214999999994        1.3886292073777144E-004   1.5557688481023771E-016
 chl          16   3.2205614996512077E-005   8.5147230634928311E-004   3.7823443882273475E-002
 chl2c          17   3.7542254757581245E-002   3.7542254757581245E-002  0.62580860000000005        1.3886292073777144E-004   1.5549869798231222E-016
 chl          17   3.1966190243990027E-005   8.5147230634928246E-004   3.7542254757581245E-002
 chl2c          18   2.5694475239060960E-002   2.5694475239060960E-002  0.47925950000000000        7.4058173136803520E-005   1.4411797912535376E-016
 chl          18   2.1876580805137256E-005   8.5141185416701137E-004   2.5694475239060960E-002
 chl2c          19   3.7570220750293731E-002   3.7570220750293731E-002  0.63367130000000005        1.3886292073777144E-004   1.7097880517922417E-006
 chl          19   3.2558290429684888E-005   8.6659832653313170E-004   3.7570220750293731E-002
 chl2c          20   3.7020645196759419E-002   3.7020645196759419E-002  0.50678202500000002        1.3886292073777144E-004   1.3677859274886349E-016
 chl          20   3.1522054141004004E-005   8.5147230615427710E-004   3.7020645196759419E-002
 chl2c          21   3.7838475073783531E-002   3.7838475073783531E-002  0.71973185000000006        1.3886292073777144E-004   9.6294354282197592E-007
 chl          21   3.2554192399202588E-005   8.6034630982678880E-004   3.7838475073783531E-002
 chl2c          22   4.5994306712621842E-002   3.7613353106285476E-002  0.64616892500000001        1.3886292073777144E-004   3.4381816689042424E-006
 chl          22   4.0407621141830036E-005   8.7853528034027959E-004   4.5994306712621842E-002
 chl2c          23   3.2286562315070731E-002   3.2286562315070731E-002  0.41564179999999995        8.5386523525995137E-005   9.9603579046227454E-017
 chl          23   2.7489161885339807E-005   8.5141185416659883E-004   3.2286562315070731E-002
 chl2c          24   3.7348402796863071E-002   3.7348402796863071E-002  0.57597492500000003        1.3886292073777144E-004   1.1096167832346478E-016
 chl          24   3.1801130660614946E-005   8.5147230615403868E-004   3.7348402796863071E-002
 chl2c          25   4.5426679235459781E-002   4.5426679235459781E-002  0.31406487500000002        5.7469436694820321E-005   7.9276364872576498E-017
 chl          25   3.8676813196485641E-005   8.5141185416641159E-004   4.5426679235459781E-002
 chl2c          26   4.7955660680174553E-002   4.7955660680174553E-002  0.49427735000000000        5.7469436694820321E-005   7.2915778685686172E-017
 chl          26   4.0830017977479884E-005   8.5141185416635304E-004   4.7955660680174553E-002
 chl2c          27   4.5333133499525620E-002   4.5333133499525620E-002  0.30964730000000001        5.7469436694820321E-005   8.2957641446492718E-017
 chl          27   3.8597167248006117E-005   8.5141185416644563E-004   4.5333133499525620E-002
 chl2c          28   3.1209236063453518E-002   3.1209236063453518E-002  0.28776342500000002        8.5386523525995137E-005   8.2507699570680969E-017
 chl          28   2.6571913543903130E-005   8.5141185416644140E-004   3.1209236063453518E-002
 chl2c          29   4.1199828081613502E-002   3.7743217595736761E-002  0.68676297499999994        1.3886292073777144E-004   3.0431253868810321E-006
 chl          29   3.6070313900655657E-005   8.7549670909313764E-004   4.1199828081613502E-002
 chl2c          30   2.5380056985171612E-002   2.5380056985171612E-002  0.38930277499999999        7.4058173136803520E-005   1.5811412567226942E-016
 chl          30   2.1608881376612645E-005   8.5141185416714039E-004   2.5380056985171612E-002
 chl2c          31   4.0774301076886711E-002   3.7576959810037038E-002  0.63559385000000002        1.3886292073777144E-004   3.0250828844633192E-006
 chl          31   3.5690473214874491E-005   8.7531784168597224E-004   4.0774301076886711E-002
 chl2c          32   4.3554371378739125E-002   2.0893126428578448E-002  0.24722667500000001        1.3886292073777144E-004   3.6707212199722781E-006
 chl          32   3.8287096101646566E-005   8.7906437148892571E-004   4.3554371378739125E-002
 chl2c          33   3.7458922634011876E-002   3.7458922634011876E-002  0.60343137499999999        1.3886292073777144E-004   1.9860004036156147E-006
 chl          33   3.2536395014530920E-005   8.6858864928989149E-004   3.7458922634011876E-002
 chl2c          34   5.0197348279363348E-002   2.5350269098008315E-002  0.38241020000000003        7.4058173136803520E-005   2.1396208101516135E-006
 chl          34   4.3560648331227872E-005   8.6778783789135143E-004   5.0197348279363348E-002
 chl2c          35   2.5740370148566064E-002   2.5740370148566064E-002  0.49574644999999995        7.4058173136803520E-005   1.1387901668466782E-016
 chl          35   2.1915656275128638E-005   8.5141185416673219E-004   2.5740370148566064E-002
 chl2c          36   3.7770393924465726E-002   3.7770393924465726E-002  0.69587337500000002        1.3886292073777144E-004   1.1826689572655752E-016
 chl          36   3.2160444426572777E-005   8.5147230634893887E-004   3.7770393924465726E-002
 chl2c          37   2.1353674699533250E-002   2.1353674699533250E-002  0.33194060000000003        1.3886292073777144E-004   1.0420804625504228E-016
 chl          37   1.8180771769200941E-005   8.5141185416664318E-004   2.1353674699533250E-002
 chl2c          38   2.1543295686358745E-002   2.1543295686358745E-002  0.38455722500000000        1.3886292073777144E-004   1.6142442880308618E-016
 chl          38   1.8342217325194317E-005   8.5141185416717107E-004   2.1543295686358745E-002
 chl2c          39   2.5670077108751441E-002   2.5670077108751441E-002  0.47091117500000002        7.4058173136803520E-005   1.2970734525816097E-016
 chl          39   2.1855807947768808E-005   8.5141185416687845E-004   2.5670077108751441E-002
 chl2c          40   3.7687445774703773E-002   3.7687445774703773E-002  0.66875547499999999        1.3886292073777144E-004   1.5587876911849500E-016
 chl          40   3.2089816374200666E-005   8.5147230634928582E-004   3.7687445774703773E-002
 chl2c          41   2.5582381488167241E-002   2.5582381488167241E-002  0.44304987499999998        7.4058173136803520E-005   9.3777656873164304E-017
 chl          41   2.1781142856836410E-005   8.5141185416654668E-004   2.5582381488167241E-002
 chl2c          42   3.7949995630725070E-002   3.7949995630725070E-002  0.76234377499999995        1.3886292073777144E-004   1.3137943276186825E-016
 chl          42   3.2313370298236316E-005   8.5147230615422711E-004   3.7949995630725070E-002
 chl2c          43   2.1185090152268007E-002   2.1185090152268007E-002  0.29539925000000000        1.3886292073777144E-004   1.6072660972539818E-016
 chl          43   1.8037236887242359E-005   8.5141185416722669E-004   2.1185090152268007E-002
 chl2c          44   3.7536352708156646E-002   3.7536352708156646E-002  0.62417262500000004        1.3886292073777144E-004   1.1216559179749179E-016
 chl          44   3.1961164805025957E-005   8.5147230615404985E-004   3.7536352708156646E-002
 chl2c          45   4.6544927192009838E-002   4.6544927192009838E-002  0.37662252499999999        5.7469436694820321E-005   7.6848951657805362E-007
 chl          45   3.9949288379160944E-005   8.5829521688496400E-004   4.6544927192009838E-002
 chl2c          46   4.2365519472454975E-002   3.7083195475449568E-002  0.51876034999999998        1.3886292073777144E-004   3.2030857867011576E-006
 chl          46   3.7136291073444581E-005   8.7656876478499671E-004   4.2365519472454975E-002
 chl2c          47   3.7519784612651236E-002   3.7519784612651236E-002  0.61962282499999999        1.3886292073777144E-004   1.4339193558596279E-016
 chl          47   3.1947057530548201E-005   8.5147230615433814E-004   3.7519784612651236E-002
 chl2c          48   3.7823212136301673E-002   3.7823212136301673E-002  0.71424949999999998        1.3886292073777144E-004   1.3787744688022413E-016
 chl          48   3.2205417663859607E-005   8.5147230615428718E-004   3.7823212136301673E-002
 chl2c          49   3.7152990741888416E-002   3.7152990741888416E-002  0.53276120000000005        1.3886292073777144E-004   1.2827109309296516E-016
 chl          49   3.1634742707521314E-005   8.5147230615419849E-004   3.7152990741888416E-002
 chl2c          50   3.2299974756493523E-002   2.1533072915600981E-002  0.38132569999999999        1.3886292073777144E-004   2.4501750935248195E-006
 chl          50   2.8118398457728527E-005   8.7053933229702164E-004   3.2299974756493523E-002
 chl2c          51   2.0700971146093840E-002   2.0700971146093840E-002  0.22275920000000002        1.3886292073777144E-004   1.7166250137366014E-016
 chl          51   1.7625052226558817E-005   8.5141185416726529E-004   2.0700971146093840E-002
 chl2c          52   3.7581825176985564E-002   3.7581825176985564E-002  0.63698869999999996        1.3886292073777144E-004   1.5265141905459832E-016
 chl          52   3.1999883360262444E-005   8.5147230634925622E-004   3.7581825176985564E-002
 chl2c          53   3.7925801262726190E-002   3.7925801262726190E-002  0.75269794999999995        1.3886292073777144E-004   1.3663110683083854E-016
 chl          53   3.2292769471311404E-005   8.5147230634910855E-004   3.7925801262726190E-002
 chl2c          54   3.7082433371327092E-002   3.7082433371327092E-002  0.51861124999999997        1.3886292073777144E-004   1.1198471157843969E-016
 chl          54   3.1574665060487706E-005   8.5147230615404800E-004   3.7082433371327092E-002
 chl2c          55   4.5474581418578859E-002   3.7357235588660491E-002  0.57808280000000001        1.3886292073777144E-004   3.4269454726081383E-006
 chl          55   3.9943531459716594E-005   8.7837051411313201E-004   4.5474581418578859E-002
 chl2c          56   3.7507394187257688E-002   3.7507394187257688E-002  0.61626080000000005        1.3886292073777144E-004   1.5305689831798995E-016
 chl          56   3.1936507433775128E-005   8.5147230634925980E-004   3.7507394187257688E-002
 chl2c          57   3.9056206745705140E-002   3.7727617852646313E-002  0.68163462500000005        1.3886292073777144E-004   2.8765496139253900E-006
 chl          57   3.4142750811066381E-005   8.7419526001000921E-004   3.9056206745705140E-002
 chl2c          58   3.7765358178394853E-002   3.7765358178394853E-002  0.69416802499999997        1.3886292073777144E-004   1.7530709242926935E-006
 chl          58   3.2740071842327357E-005   8.6693396862994921E-004   3.7765358178394853E-002
 chl2c          59   3.7173699120809672E-002   3.7173699120809672E-002  0.53705127500000005        1.3886292073777144E-004   1.5570706279703237E-016
 chl          59   3.1652375318688158E-005   8.5147230615446867E-004   3.7173699120809672E-002
 chl2c          60   3.7607757740906807E-002   3.7607757740906807E-002  0.64452155000000000        1.3886292073777144E-004   9.7638628487200612E-007
 chl          60   3.2360240023730026E-005   8.6046714740802173E-004   3.7607757740906807E-002
 chl2c          61   3.7805373434125003E-002   3.7805373434125003E-002  0.70794139999999994        1.3886292073777144E-004   1.3370724801734485E-016
 chl          61   3.2190228502976986E-005   8.5147230615424869E-004   3.7805373434125003E-002
 chl2c          62   3.7956103087269030E-002   3.7956103087269030E-002  0.76481592499999995        1.3886292073777144E-004   1.0903118463020289E-016
 chl          62   3.2318570628336722E-005   8.5147230615402112E-004   3.7956103087269030E-002
 chl2c          63   3.7855601011927406E-002   3.7855601011927406E-002  0.72597904999999996        1.3886292073777144E-004   2.1865929644130440E-006
 chl          63   3.2933479075640728E-005   8.6997638910194994E-004   3.7855601011927406E-002
 chl2c          64   2.5708982294816416E-002   2.5708982294816416E-002  0.48435739999999999        7.4058173136803520E-005   9.1226945499982520E-017
 chl          64   2.1888932284363957E-005   8.5141185416652305E-004   2.5708982294816416E-002
 chl2c          65   3.7953597170552002E-002   3.7953597170552002E-002  0.76379975000000000        1.3886292073777144E-004   1.2051739158730722E-016
 chl          65   3.2316436917049273E-005   8.5147230634895991E-004   3.7953597170552002E-002
 chl2c          66   3.1840477731474713E-002   3.1840477731474713E-002  0.35213202499999996        8.5386523525995137E-005   7.8873192919043583E-017
 chl          66   2.7109360182899108E-005   8.5141185416640790E-004   3.1840477731474713E-002
 chl2c          67   3.7937587124568600E-002   3.7937587124568600E-002  0.75736760000000003        1.3886292073777144E-004   1.2753851712469542E-016
 chl          67   3.2302804798881993E-005   8.5147230615419155E-004   3.7937587124568600E-002
 chl2c          68   3.7855407263856986E-002   3.7855407263856986E-002  0.72590779999999999        1.3886292073777144E-004   1.4658041991401586E-006
 chl          68   3.2733212417138058E-005   8.6469053651921956E-004   3.7855407263856986E-002
 chl2c          69   3.3979979695218140E-002   2.1732330561541505E-002  0.45524217500000003        1.3886292073777144E-004   2.5495845453824767E-006
 chl          69   2.9610083293382892E-005   8.7139791015089377E-004   3.3979979695218140E-002
 chl2c          70   3.2658010878182209E-002   3.2658010878182209E-002  0.48694062500000002        8.5386523525995137E-005   9.9036278109114321E-017
 chl          70   2.7805417595185898E-005   8.5141185416659363E-004   3.2658010878182209E-002
 chl2c          71   4.3481058864416305E-002   4.3481058864416305E-002  0.23986107500000001        5.7469436694820321E-005   8.6737454700847854E-017
 chl          71   3.7020288948874560E-005   8.5141185416648033E-004   4.3481058864416305E-002
 chl2c          72   3.7549776402781669E-002   3.7549776402781669E-002  0.62790522500000001        1.3886292073777144E-004   1.5354227566754163E-016
 chl          72   3.1972594716575694E-005   8.5147230634926435E-004   3.7549776402781669E-002
 chl2c          73   3.1852614277819484E-002   3.1852614277819484E-002  0.35362212500000001        8.5386523525995137E-005   9.5561743569791765E-017
 chl          73   2.7119693382330575E-005   8.5141185416656143E-004   3.1852614277819484E-002
 chl2c          74   3.7616827685877569E-002   3.7616827685877569E-002  0.64719590000000005        1.3886292073777144E-004   1.1398134731194453E-006
 chl          74   3.2422752241455198E-005   8.6192149195046623E-004   3.7616827685877569E-002
 chl2c          75   3.7826830779512356E-002   3.7826830779512356E-002  0.71554212500000003        1.3886292073777144E-004   1.2092847821071090E-016
 chl          75   3.2208498845703352E-005   8.5147230634896359E-004   3.7826830779512356E-002
 chl2c          76   4.0995127747481555E-002   3.7257729557919804E-002  0.55513977500000000        1.3886292073777144E-004   3.0733043479276612E-006
 chl          76   3.5895889336227729E-005   8.7561354991589008E-004   4.0995127747481555E-002
 chl2c          77   3.7138172437479272E-002   3.7138172437479272E-002  0.52973029999999999        1.3886292073777144E-004   3.3656795372074530E-007
 chl          77   3.1737477728784684E-005   8.5457833936803274E-004   3.7138172437479272E-002
 chl2c          78   5.9811787183783431E-002   4.7515248899399322E-002  0.45117492500000000        5.7469436694820321E-005   1.9813388781237746E-006
 chl          78   5.1829166842602120E-005   8.6653767230440465E-004   5.9811787183783431E-002
 prod   4.1765613758928893E-007   104.38776341375770        10.000000000000000     
 chl2c           1   3.7477407714772232E-002   3.7477407714772232E-002  0.60826437499999997        1.1841178690527223E-004   1.4434700966346204E-016
 chl           1   2.8671373831433742E-005   7.6503087005488186E-004   3.7477407714772232E-002
 chl2c           2   4.5622565279173563E-002   3.2640259920490348E-002  0.48302390000000001        7.3771335573952166E-005   1.8583429649484199E-006
 chl           2   3.5468010799647431E-005   7.7742254480017974E-004   4.5622565279173563E-002
 chl2c           3   3.7922212503796585E-002   3.7922212503796585E-002  0.75128689999999998        1.1841178690527223E-004   1.5570855605760115E-016
 chl           3   2.9011659903763385E-005   7.6503078244337353E-004   3.7922212503796585E-002
 chl2c           4   5.2488016159744008E-002   3.7976509103863923E-002  0.77318742499999993        1.1841178690527223E-004   3.3339241425487080E-006
 chl           4   4.1393218975265778E-005   7.8862227997507264E-004   5.2488016159744008E-002
 chl2c           5   6.7750357950923462E-002   2.5710500362372445E-002  0.48489679999999996        6.2674711323775628E-005   2.4679406708500006E-006
 chl           5   5.2940182407917585E-005   7.8140077793044328E-004   6.7750357950923462E-002
 chl2c           6   3.1261039902252048E-002   3.1261039902252048E-002  0.29222855000000003        7.3771335573952166E-005   1.2622327363252985E-016
 chl           6   2.3898634796395727E-005   7.6448623817770270E-004   3.1261039902252048E-002
 chl2c           7   5.7192897357869636E-002   4.3064391842467263E-002  0.22770740000000000        5.0005461226162961E-005   1.9096129965252689E-006
 chl           7   4.4428979557412054E-005   7.7682687203988463E-004   5.7192897357869636E-002
 chl2c           8   4.7969800906495587E-002   4.7969800906495587E-002  0.49578364999999996        5.0005461226162961E-005   5.9237184750020373E-008
 chl           8   3.6695963327878479E-005   7.6498052179552580E-004   4.7969800906495587E-002
 chl2c           9   4.6929677456761167E-002   2.4803669054600401E-002  0.28700202499999999        6.2674711323775628E-005   1.7581370971766982E-006
 chl           9   3.6435700740079379E-005   7.7638932791834227E-004   4.6929677456761167E-002
 chl2c          10   7.9411570739781917E-002   2.5387016219684602E-002  0.39094662499999999        6.2674711323775628E-005   3.1228899511164889E-006
 chl          10   6.2361717331140229E-005   7.8529761784323427E-004   7.9411570739781917E-002
 chl2c          11   2.1820572217820047E-002   2.1820572217820047E-002  0.49737575000000001        1.1841178690527223E-004   1.4378263062813383E-016
 chl          11   1.6681527169689336E-005   7.6448623817784928E-004   2.1820572217820047E-002
 chl2c          12   4.5290941298723353E-002   4.5290941298723353E-002  0.30768942500000002        5.0005461226162961E-005   8.8809781614148151E-017
 chl          12   3.4624301336974131E-005   7.6448623817739272E-004   4.5290941298723353E-002
 chl2c          13   3.7935816987997487E-002   3.7935816987997487E-002  0.75666275000000005        1.1841178690527223E-004   1.2940405408305804E-016
 chl          13   2.9022067746808520E-005   7.6503078228131512E-004   3.7935816987997487E-002
 chl2c          14   4.6856526101924839E-002   4.6856526101924839E-002  0.39804095000000000        5.0005461226162961E-005   1.0074467193008128E-016
 chl          14   3.5821169373725977E-005   7.6448623817749182E-004   4.6856526101924839E-002
 chl2c          15   4.9291698020614678E-002   2.0954299823745293E-002  0.25607262500000000        1.1841178690527223E-004   3.6140270098608511E-006
 chl          15   3.8878096033653702E-005   7.8873517437752256E-004   4.9291698020614678E-002
 chl2c          16   3.7823443882273475E-002   3.7823443882273475E-002  0.71433214999999994        1.1841178690527223E-004   1.6212235974792884E-016
 chl          16   2.8936098867960719E-005   7.6503078244342677E-004   3.7823443882273475E-002
 chl2c          17   3.7542254757581245E-002   3.7542254757581245E-002  0.62580860000000005        1.1841178690527223E-004   1.6204090730352741E-016
 chl          17   2.8720980531882816E-005   7.6503078244342612E-004   3.7542254757581245E-002
 chl2c          18   2.5694475239060960E-002   2.5694475239060960E-002  0.47925950000000000        6.2674711323775628E-005   1.5013348895605362E-016
 chl          18   1.9643072717464962E-005   7.6448623817790197E-004   2.5694475239060960E-002
 chl2c          19   3.7570220750293731E-002   3.7570220750293731E-002  0.63367130000000005        1.1841178690527223E-004   1.9669601467852233E-006
 chl          19   2.9295260739000767E-005   7.7974683549794502E-004   3.7570220750293731E-002
 chl2c          20   3.7020645196759419E-002   3.7020645196759419E-002  0.50678202500000002        1.1841178690527223E-004   1.4253750912756569E-016
 chl          20   2.8321933155439898E-005   7.6503078228142398E-004   3.7020645196759419E-002
 chl2c          21   3.7838475073783531E-002   3.7838475073783531E-002  0.71973185000000006        1.1841178690527223E-004   1.3039089851793760E-006
 chl          21   2.9345366708648606E-005   7.7554305905368280E-004   3.7838475073783531E-002
 chl2c          22   5.4588403137917220E-002   3.7613353106285476E-002  0.64616892500000001        1.1841178690527223E-004   3.5301855404096774E-006
 chl          22   4.3117794874916770E-005   7.8987096885724912E-004   5.4588403137917220E-002
 chl2c          23   3.2286562315070731E-002   3.2286562315070731E-002  0.41564179999999995        7.3771335573952166E-005   1.1617491195551297E-016
 chl          23   2.4682632567935717E-005   7.6448623817761954E-004   3.2286562315070731E-002
 chl2c          24   3.7348402796863071E-002   3.7348402796863071E-002  0.57597492500000003        1.1841178690527223E-004   1.1563651778674039E-016
 chl          24   2.8572677808637549E-005   7.6503078228120096E-004   3.7348402796863071E-002
 chl2c          25   4.5426679235459781E-002   4.5426679235459781E-002  0.31406487500000002        5.0005461226162961E-005   9.3163563240549788E-017
 chl          25   3.4728071121609365E-005   7.6448623817742872E-004   4.5426679235459781E-002
 chl2c          26   4.7955660680174553E-002   4.7955660680174553E-002  0.49427735000000000        5.0005461226162961E-005   8.5891577699568905E-017
 chl          26   3.6661442632696989E-005   7.6448623817736855E-004   4.7955660680174553E-002
 chl2c          27   4.5333133499525620E-002   4.5333133499525620E-002  0.30964730000000001        5.0005461226162961E-005   1.0000194832755509E-016
 chl          27   3.4656556693850097E-005   7.6448623817748564E-004   4.5333133499525620E-002
 chl2c          28   3.1209236063453518E-002   3.1209236063453518E-002  0.28776342500000002        7.3771335573952166E-005   9.9472152936942597E-017
 chl          28   2.3859031474542563E-005   7.6448623817748119E-004   3.1209236063453518E-002
 chl2c          29   4.8546578533228510E-002   3.7743217595736761E-002  0.68676297499999994        1.1841178690527223E-004   3.0928758120429496E-006
 chl          29   3.8200255230718871E-005   7.8687842449230640E-004   4.8546578533228510E-002
 chl2c          30   2.5380056985171612E-002   2.5380056985171612E-002  0.38930277499999999        6.2674711323775628E-005   1.6469327727120004E-016
 chl          30   1.9402704289337694E-005   7.6448623817802275E-004   2.5380056985171612E-002
 chl2c          31   4.6128030122161219E-002   3.7576959810037038E-002  0.63559385000000002        1.1841178690527223E-004   2.9447667896553014E-006
 chl          31   3.6247780954982032E-005   7.8580812705391387E-004   4.6128030122161219E-002
 chl2c          32   5.0719244572606390E-002   2.0893126428578448E-002  0.24722667500000001        1.1841178690527223E-004   3.7779313930754754E-006
 chl          32   4.0052216702260142E-005   7.8968480386027795E-004   5.0719244572606390E-002
 chl2c          33   3.7458922634011876E-002   3.7458922634011876E-002  0.60343137499999999        1.1841178690527223E-004   2.2249037437007552E-006
 chl          33   2.9258990398321622E-005   7.8109535301357290E-004   3.7458922634011876E-002
 chl2c          34   5.3902517670893643E-002   2.5350269098008315E-002  0.38241020000000003        6.2674711323775628E-005   1.9663251530103006E-006
 chl          34   4.1932551274235792E-005   7.7793307411461762E-004   5.3902517670893643E-002
 chl2c          35   2.5740370148566064E-002   2.5740370148566064E-002  0.49574644999999995        6.2674711323775628E-005   1.1865709200769574E-016
 chl          35   1.9678158744177316E-005   7.6448623817764101E-004   2.5740370148566064E-002
 chl2c          36   3.7770393924465726E-002   3.7770393924465726E-002  0.69587337500000002        1.1841178690527223E-004   1.2324886322456649E-016
 chl          36   2.8895514017218289E-005   7.6503078244310433E-004   3.7770393924465726E-002
 chl2c          37   2.1353674699533250E-002   2.1353674699533250E-002  0.33194060000000003        1.1841178690527223E-004   1.0858570169536719E-016
 chl          37   1.6324590442313468E-005   7.6448623817755785E-004   2.1353674699533250E-002
 chl2c          38   2.1543295686358745E-002   2.1543295686358745E-002  0.38455722500000000        1.1841178690527223E-004   1.6813591384950564E-016
 chl          38   1.6469553077221836E-005   7.6448623817805127E-004   2.1543295686358745E-002
 chl2c          39   2.5670077108751441E-002   2.5670077108751441E-002  0.47091117500000002        6.2674711323775628E-005   1.3513618374382841E-016
 chl          39   1.9624420682602872E-005   7.6448623817777762E-004   2.5670077108751441E-002
 chl2c          40   3.7687445774703773E-002   3.7687445774703773E-002  0.66875547499999999        1.1841178690527223E-004   1.6243685231441727E-016
 chl          40   2.8832056129315945E-005   7.6503078244342937E-004   3.7687445774703773E-002
 chl2c          41   2.5582381488167241E-002   2.5582381488167241E-002  0.44304987499999998        6.2674711323775628E-005   9.7721421305863078E-017
 chl          41   1.9557378587509862E-005   7.6448623817746775E-004   2.5582381488167241E-002
 chl2c          42   3.7949995630725070E-002   3.7949995630725070E-002  0.76234377499999995        1.1841178690527223E-004   1.3691196075778024E-016
 chl          42   2.9032914844948453E-005   7.6503078228137736E-004   3.7949995630725070E-002
 chl2c          43   2.1185090152268007E-002   2.1185090152268007E-002  0.29539925000000000        1.1841178690527223E-004   1.6741023116652908E-016
 chl          43   1.6195709878408775E-005   7.6448623829315700E-004   2.1185090152268007E-002
 chl2c          44   3.7536352708156646E-002   3.7536352708156646E-002  0.62417262500000004        1.1841178690527223E-004   1.1689106417811663E-016
 chl          44   2.8716465276304549E-005   7.6503078228121147E-004   3.7536352708156646E-002
 chl2c          45   4.6544927192009838E-002   4.6544927192009838E-002  0.37662252499999999        5.0005461226162961E-005   5.2903826557421458E-007
 chl          45   3.5784401878899084E-005   7.6881421967380447E-004   4.6544927192009838E-002
 chl2c          46   4.9062770685112195E-002   3.7083195475449568E-002  0.51876034999999998        1.1841178690527223E-004   3.2082297523756997E-006
 chl          46   3.8636699509631792E-005   7.8749526311109599E-004   4.9062770685112195E-002
 chl2c          47   3.7519784612651236E-002   3.7519784612651236E-002  0.61962282499999999        1.1841178690527223E-004   1.4942787633507710E-016
 chl          47   2.8703790173249253E-005   7.6503078228148111E-004   3.7519784612651236E-002
 chl2c          48   3.7823212136301673E-002   3.7823212136301673E-002  0.71424949999999998        1.1841178690527223E-004   1.4368241441546670E-016
 chl          48   2.8935921569031478E-005   7.6503078228143352E-004   3.7823212136301673E-002
 chl2c          49   3.7152990741888416E-002   3.7152990741888416E-002  0.53276120000000005        1.1841178690527223E-004   1.3367320199689723E-016
 chl          49   2.8423181571358669E-005   7.6503078228135058E-004   3.7152990741888416E-002
 chl2c          50   4.0240600675402999E-002   2.1533072915600981E-002  0.38132569999999999        1.1841178690527223E-004   2.6635614648259060E-006
 chl          50   3.1509165372880218E-005   7.8301926025026126E-004   4.0240600675402999E-002
 chl2c          51   2.0700971146093840E-002   2.0700971146093840E-002  0.22275920000000002        1.1841178690527223E-004   1.7878071218031273E-016
 chl          51   1.5825607558111482E-005   7.6448623817813920E-004   2.0700971146093840E-002
 chl2c          52   3.7581825176985564E-002   3.7581825176985564E-002  0.63698869999999996        1.1841178690527223E-004   1.5907467106353001E-016
 chl          52   2.8751253120800388E-005   7.6503078244340140E-004   3.7581825176985564E-002
 chl2c          53   3.7925801262726190E-002   3.7925801262726190E-002  0.75269794999999995        1.1841178690527223E-004   1.4238384168331050E-016
 chl          53   2.9014405414811108E-005   7.6503078244326294E-004   3.7925801262726190E-002
 chl2c          54   3.7082433371327092E-002   3.7082433371327092E-002  0.51861124999999997        1.1841178690527223E-004   1.1670257711747162E-016
 chl          54   2.8369203010957206E-005   7.6503078228120985E-004   3.7082433371327092E-002
 chl2c          55   5.3760518152459635E-002   3.7357235588660491E-002  0.57808280000000001        1.1841178690527223E-004   3.5092969490261012E-006
 chl          55   4.2451512556415555E-005   7.8964106030427698E-004   5.3760518152459635E-002
 chl2c          56   3.7507394187257688E-002   3.7507394187257688E-002  0.61626080000000005        1.1841178690527223E-004   1.5949709514438182E-016
 chl          56   2.8694311122490963E-005   7.6503078244340487E-004   3.7507394187257688E-002
 chl2c          57   4.2422419693506734E-002   3.7727617852646313E-002  0.68163462500000005        1.1841178690527223E-004   2.6783477233269546E-006
 chl          57   3.3258544403806410E-005   7.8398508722728590E-004   4.2422419693506734E-002
 chl2c          58   3.7765358178394853E-002   3.7765358178394853E-002  0.69416802499999997        1.1841178690527223E-004   2.1350655358205675E-006
 chl          58   2.9482466060843743E-005   7.8067486932271014E-004   3.7765358178394853E-002
 chl2c          59   3.7173699120809672E-002   3.7173699120809672E-002  0.53705127500000005        1.1841178690527223E-004   1.6225797474064035E-016
 chl          59   2.8439024119856818E-005   7.6503078231288471E-004   3.7173699120809672E-002
 chl2c          60   3.7607757740906807E-002   3.7607757740906807E-002  0.64452155000000000        1.1841178690527223E-004   1.2689160833348915E-006
 chl          60   2.9156678544615935E-005   7.7528361955229140E-004   3.7607757740906807E-002
 chl2c          61   3.7805373434125003E-002   3.7805373434125003E-002  0.70794139999999994        1.1841178690527223E-004   1.3933740570051128E-016
 chl          61   2.8922274412749013E-005   7.6503078228139741E-004   3.7805373434125003E-002
 chl2c          62   3.7956103087269030E-002   3.7956103087269030E-002  0.76481592499999995        1.1841178690527223E-004   1.1362481973978672E-016
 chl          62   2.9037587237198704E-005   7.6503078228118437E-004   3.7956103087269030E-002
 chl2c          63   3.7855601011927406E-002   3.7855601011927406E-002  0.72597904999999996        1.1841178690527223E-004   2.3557938558572937E-006
 chl          63   2.9595227518760973E-005   7.8179256774806494E-004   3.7855601011927406E-002
 chl2c          64   2.5708982294816416E-002   2.5708982294816416E-002  0.48435739999999999        6.2674711323775628E-005   9.5064318928341837E-017
 chl          64   1.9654163161934757E-005   7.6448623817744563E-004   2.5708982294816416E-002
 chl2c          65   3.7953597170552002E-002   3.7953597170552002E-002  0.76379975000000000        1.1841178690527223E-004   1.2559392071968692E-016
 chl          65   2.9035670139921415E-005   7.6503078244319984E-004   3.7953597170552002E-002
 chl2c          66   3.1840477731474713E-002   3.1840477731474713E-002  0.35213202499999996        7.3771335573952166E-005   9.2703640921926017E-017
 chl          66   2.4341607042707167E-005   7.6448623817742482E-004   3.1840477731474713E-002
 chl2c          67   3.7937587124568600E-002   3.7937587124568600E-002  0.75736760000000003        1.1841178690527223E-004   1.3290988005125808E-016
 chl          67   2.9023421955775367E-005   7.6503078228134418E-004   3.7937587124568600E-002
 chl2c          68   3.7855407263856986E-002   3.7855407263856986E-002  0.72590779999999999        1.1841178690527223E-004   1.8781072653135001E-006
 chl          68   2.9499543651190502E-005   7.7926895477771366E-004   3.7855407263856986E-002
 chl2c          69   3.9956359973173837E-002   2.1732330561541505E-002  0.45524217500000003        1.1841178690527223E-004   2.5932611200678116E-006
 chl          69   3.1271892743564633E-005   7.8265119156400043E-004   3.9956359973173837E-002
 chl2c          70   3.2658010878182209E-002   3.2658010878182209E-002  0.48694062500000002        7.3771335573952166E-005   1.1885114570624312E-016
 chl          70   2.4966599882626017E-005   7.6448623817764166E-004   3.2658010878182209E-002
 chl2c          71   4.3481058864416305E-002   4.3481058864416305E-002  0.23986107500000001        5.0005461226162961E-005   1.0165009384786878E-016
 chl          71   3.3240671123232027E-005   7.6448623817749919E-004   4.3481058864416305E-002
 chl2c          72   3.7549776402781669E-002   3.7549776402781669E-002  0.62790522500000001        1.1841178690527223E-004   1.6000275440866391E-016
 chl          72   2.8726734821995121E-005   7.6503078244340909E-004   3.7549776402781669E-002
 chl2c          73   3.1852614277819484E-002   3.1852614277819484E-002  0.35362212500000001        7.3771335573952166E-005   1.1162686296326290E-016
 chl          73   2.4350885265371750E-005   7.6448623817758181E-004   3.1852614277819484E-002
 chl2c          74   3.7616827685877569E-002   3.7616827685877569E-002  0.64719590000000005        1.1841178690527223E-004   1.4954517224474965E-006
 chl          74   2.9223149345131451E-005   7.7686373739863914E-004   3.7616827685877569E-002
 chl2c          75   3.7826830779512356E-002   3.7826830779512356E-002  0.71554212500000003        1.1841178690527223E-004   1.2602227750588227E-016
 chl          75   2.8938689948594113E-005   7.6503078244312742E-004   3.7826830779512356E-002
 chl2c          76   4.8350319420485649E-002   3.7257729557919804E-002  0.55513977500000000        1.1841178690527223E-004   3.1357328927423907E-006
 chl          76   3.8053975700596031E-005   7.8704703829677008E-004   4.8350319420485649E-002
 chl2c          77   3.7138172437479272E-002   3.7138172437479272E-002  0.52973029999999999        1.1841178690527223E-004   5.7566283249922302E-007
 chl          77   2.8589339519477759E-005   7.6981008065506846E-004   3.7138172437479272E-002
 chl2c          78   6.9882539252135834E-002   4.7515248899399322E-002  0.45117492500000000        5.0005461226162961E-005   2.0674877306610138E-006
 chl          78   5.4405451145851158E-005   7.7852710745894018E-004   6.9882539252135834E-002
 prod   5.0570171660026352E-007   88.019917300218097        10.000000000000000     
 chl2c           1   3.7477407714772232E-002   3.7477407714772232E-002  0.60826437499999997        1.0128148638734656E-004   1.6579653415153193E-008
 chl           1   2.5411471647550735E-005   6.7804774121382088E-004   3.7477407714772232E-002
 chl2c           2   5.6099075386911390E-002   3.2640259920490348E-002  0.48302390000000001        6.3825421510774126E-005   2.0255203499247723E-006
 chl           2   3.8695900668646694E-005   6.8977786891787041E-004   5.6099075386911390E-002
 chl2c           3   3.7922212503796585E-002   3.7922212503796585E-002  0.75128689999999998        1.0128148638734656E-004   1.6117578039555096E-016
 chl           3   2.5708444006623784E-005   6.7792574085834213E-004   3.7922212503796585E-002
 chl2c           4   6.3373061196800043E-002   3.7976509103863923E-002  0.77318742499999993        1.0128148638734656E-004   3.4957853279513509E-006
 chl           4   4.4344810778544442E-005   6.9974228703952187E-004   6.3373061196800043E-002
 chl2c           5   7.7021162909189644E-002   2.5710500362372445E-002  0.48489679999999996        5.3436859380670347E-005   2.4464849836947411E-006
 chl           5   5.3307242650552269E-005   6.9211163058396268E-004   7.7021162909189644E-002
 chl2c           6   3.1261039902252048E-002   3.1261039902252048E-002  0.29222855000000003        6.3825421510774126E-005   1.4568606106420087E-016
 chl           6   2.1175573384619149E-005   6.7737904595725426E-004   3.1261039902252048E-002
 chl2c           7   6.9185451019056349E-002   4.3064391842467263E-002  0.22770740000000000        4.3552383342294356E-005   2.1641354951316372E-006
 chl           7   4.7695666322335351E-005   6.8938867377186163E-004   6.9185451019056349E-002
 chl2c           8   4.7969800906495587E-002   4.7969800906495587E-002  0.49578364999999996        4.3552383342294356E-005   2.1568388323938545E-007
 chl           8   3.2569678268798121E-005   6.7896213145191237E-004   4.7969800906495587E-002
 chl2c           9   6.1081646749133849E-002   2.4803669054600401E-002  0.28700202499999999        5.3436859380670347E-005   2.0732478395991050E-006
 chl           9   4.2117311839215017E-005   6.8952482588089769E-004   6.1081646749133849E-002
 chl2c          10   9.0772079025333213E-002   2.5387016219684602E-002  0.39094662499999999        5.3436859380670347E-005   3.1586886390308810E-006
 chl          10   6.3154647334608401E-005   6.9574970643762417E-004   9.0772079025333213E-002
 chl2c          11   2.1820572217820047E-002   2.1820572217820047E-002  0.49737575000000001        1.0128148638734656E-004   1.4867978858336689E-016
 chl          11   1.4780798391148811E-005   6.7737904595727714E-004   2.1820572217820047E-002
 chl2c          12   4.5290941298723353E-002   4.5290941298723353E-002  0.30768942500000002        4.3552383342294356E-005   1.0140403421912787E-016
 chl          12   3.0679134607420522E-005   6.7737904595692943E-004   4.5290941298723353E-002
 chl2c          13   3.7935816987997487E-002   3.7935816987997487E-002  0.75666275000000005        1.0128148638734656E-004   1.3398104344366938E-016
 chl          13   2.5717666831651147E-005   6.7792574072644753E-004   3.7935816987997487E-002
 chl2c          14   4.6856526101924839E-002   4.6856526101924839E-002  0.39804095000000000        4.3552383342294356E-005   1.1694528971614028E-016
 chl          14   3.1739628947783146E-005   6.7737904595704327E-004   4.6856526101924839E-002
 chl2c          15   5.6526001001592580E-002   2.0954299823745293E-002  0.25607262500000000        1.0128148638734656E-004   3.6733905242673361E-006
 chl          15   3.9506469027257277E-005   6.9890790657814645E-004   5.6526001001592580E-002
 chl2c          16   3.7823443882273475E-002   3.7823443882273475E-002  0.71433214999999994        1.0128148638734656E-004   1.6780426707076804E-016
 chl          16   2.5641486215706014E-005   6.7792574085839081E-004   3.7823443882273475E-002
 chl2c          17   3.7542254757581245E-002   3.7542254757581245E-002  0.62580860000000005        1.0128148638734656E-004   1.6772009426514759E-016
 chl          17   2.5450860870027684E-005   6.7792574085839006E-004   3.7542254757581245E-002
 chl2c          18   2.5694475239060960E-002   2.5694475239060960E-002  0.47925950000000000        5.3436859380670347E-005   1.5522692798370162E-016
 chl          18   1.7404899123809228E-005   6.7737904595732517E-004   2.5694475239060960E-002
 chl2c          19   3.9607943169863144E-002   3.7570220750293731E-002  0.63367130000000005        1.0128148638734656E-004   2.1395066150553824E-006
 chl          19   2.7381782338021569E-005   6.9132048136384412E-004   3.9607943169863144E-002
 chl2c          20   3.7020645196759419E-002   3.7020645196759419E-002  0.50678202500000002        1.0128148638734656E-004   1.4756091105346863E-016
 chl          20   2.5097248317187823E-005   6.7792574072654728E-004   3.7020645196759419E-002
 chl2c          21   3.7838475073783531E-002   3.7838475073783531E-002  0.71973185000000006        1.0128148638734656E-004   1.5484841992702014E-006
 chl          21   2.6048199922512588E-005   6.8840511864496723E-004   3.7838475073783531E-002
 chl2c          22   6.4222468894672910E-002   3.7613353106285476E-002  0.64616892500000001        1.0128148638734656E-004   3.6111880818376069E-006
 chl          22   4.4976229226748515E-005   7.0031921850452527E-004   6.4222468894672910E-002
 chl2c          23   3.2286562315070731E-002   3.2286562315070731E-002  0.41564179999999995        6.3825421510774126E-005   1.3154570746471758E-016
 chl          23   2.1870240778218688E-005   6.7737904595715018E-004   3.2286562315070731E-002
 chl2c          24   3.7348402796863071E-002   3.7348402796863071E-002  0.57597492500000003        1.0128148638734656E-004   1.1974154933537755E-016
 chl          24   2.5319443631009210E-005   6.7792574072634280E-004   3.7348402796863071E-002
 chl2c          25   4.5426679235459781E-002   4.5426679235459781E-002  0.31406487500000002        4.3552383342294356E-005   1.0623336551503576E-016
 chl          25   3.0771080641508811E-005   6.7737904595696478E-004   4.5426679235459781E-002
 chl2c          26   4.7955660680174553E-002   4.7955660680174553E-002  0.49427735000000000        4.3552383342294356E-005   9.8159857652448605E-017
 chl          26   3.2484159679769721E-005   6.7737904595690547E-004   4.7955660680174553E-002
 chl2c          27   4.5333133499525620E-002   4.5333133499525620E-002  0.30964730000000001        4.3552383342294356E-005   1.1610278542954097E-016
 chl          27   3.0707714720151663E-005   6.7737904595703709E-004   4.5333133499525620E-002
 chl2c          28   3.1209236063453518E-002   3.1209236063453518E-002  0.28776342500000002        6.3825421510774126E-005   1.1550164930872982E-016
 chl          28   2.1140482549709962E-005   6.7737904595703265E-004   3.1209236063453518E-002
 chl2c          29   5.6914965691156789E-002   3.7743217595736761E-002  0.68676297499999994        1.0128148638734656E-004   3.1426619063184303E-006
 chl          29   3.9698881310703423E-005   6.9751217151083457E-004   5.6914965691156789E-002
 chl2c          30   2.5380056985171612E-002   2.5380056985171612E-002  0.38930277499999999        5.3436859380670347E-005   1.7022883084753975E-016
 chl          30   1.7191918786960886E-005   6.7737904595743521E-004   2.5380056985171612E-002
 chl2c          31   5.2267424117461062E-002   3.7576959810037038E-002  0.63559385000000002        1.0128148638734656E-004   2.8840262111053147E-006
 chl          31   3.6372495246171109E-005   6.9589224761547200E-004   5.2267424117461062E-002
 chl2c          32   5.8262314955068270E-002   2.0893126428578448E-002  0.24722667500000001        1.0128148638734656E-004   3.8601415842273570E-006
 chl          32   4.0773750960216623E-005   6.9983060219390913E-004   5.8262314955068270E-002
 chl2c          33   4.3679589468278587E-002   3.7458922634011876E-002  0.60343137499999999        1.0128148638734656E-004   2.3845751745160539E-006
 chl          33   3.0261695858811420E-005   6.9281090383847041E-004   4.3679589468278587E-002
 chl2c          34   5.7866827394929835E-002   2.5350269098008315E-002  0.38241020000000003        5.3436859380670347E-005   1.8217858521787923E-006
 chl          34   3.9833620984262441E-005   6.8836711424329056E-004   5.7866827394929835E-002
 chl2c          35   2.5740370148566064E-002   2.5740370148566064E-002  0.49574644999999995        5.3436859380670347E-005   1.2275833959045140E-016
 chl          35   1.7435987373817955E-005   6.7737904595708675E-004   2.5740370148566064E-002
 chl2c          36   3.7770393924465726E-002   3.7770393924465726E-002  0.69587337500000002        1.0128148638734656E-004   1.2761534611097681E-016
 chl          36   2.5605522283745538E-005   6.7792574085809559E-004   3.7770393924465726E-002
 chl2c          37   2.1353674699533250E-002   2.1353674699533250E-002  0.33194060000000003        1.0128148638734656E-004   1.1235966564526914E-016
 chl          37   1.4464531795646182E-005   6.7737904595701031E-004   2.1353674699533250E-002
 chl2c          38   2.1543295686358745E-002   2.1543295686358745E-002  0.38455722500000000        1.0128148638734656E-004   1.7377435714120345E-016
 chl          38   1.4592977078805177E-005   6.7737904595746123E-004   2.1543295686358745E-002
 chl2c          39   2.5670077108751441E-002   2.5670077108751441E-002  0.47091117500000002        5.3436859380670347E-005   1.3976287263966393E-016
 chl          39   1.7388372341574108E-005   6.7737904595721165E-004   2.5670077108751441E-002
 chl2c          40   3.7687445774703773E-002   3.7687445774703773E-002  0.66875547499999999        1.0128148638734656E-004   1.6812926164752773E-016
 chl          40   2.5549289597876576E-005   6.7792574085839320E-004   3.7687445774703773E-002
 chl2c          41   2.5582381488167241E-002   2.5582381488167241E-002  0.44304987499999998        5.3436859380670347E-005   1.0113735217159531E-016
 chl          41   1.7328969165760900E-005   6.7737904595692791E-004   2.5582381488167241E-002
 chl2c          42   3.7949995630725070E-002   3.7949995630725070E-002  0.76234377499999995        1.0128148638734656E-004   1.4174461145887343E-016
 chl          42   2.5727278898526906E-005   6.7792574072650456E-004   3.7949995630725070E-002
 chl2c          43   2.1185090152268007E-002   2.1185090152268007E-002  0.29539925000000000        1.0128148638734656E-004   1.7302703947857213E-016
 chl          43   1.4350340224134366E-005   6.7737923799196412E-004   2.1185090152268007E-002
 chl2c          44   3.7536352708156646E-002   3.7536352708156646E-002  0.62417262500000004        1.0128148638734656E-004   1.2103926755641985E-016
 chl          44   2.5446859713842715E-005   6.7792574072635234E-004   3.7536352708156646E-002
 chl2c          45   4.6544927192009838E-002   4.6544927192009838E-002  0.37662252499999999        4.3552383342294356E-005   3.5637256397008750E-007
 chl          45   3.1650014946850734E-005   6.7998849404761670E-004   4.6544927192009838E-002
 chl2c          46   5.6597034603314993E-002   3.7083195475449568E-002  0.51876034999999998        1.0128148638734656E-004   3.2171036411384218E-006
 chl          46   3.9492001999669331E-005   6.9777510918136000E-004   5.6597034603314993E-002
 chl2c          47   3.7519784612651236E-002   3.7519784612651236E-002  0.61962282499999999        1.0128148638734656E-004   1.5468395318871152E-016
 chl          47   2.5435627775434057E-005   6.7792574072659943E-004   3.7519784612651236E-002
 chl2c          48   3.7823212136301673E-002   3.7823212136301673E-002  0.71424949999999998        1.0128148638734656E-004   1.4874455161316328E-016
 chl          48   2.5641329104159978E-005   6.7792574072655606E-004   3.7823212136301673E-002
 chl2c          49   3.7152990741888416E-002   3.7152990741888416E-002  0.53276120000000005        1.0128148638734656E-004   1.3839571627469832E-016
 chl          49   2.5186968768898756E-005   6.7792574072647995E-004   3.7152990741888416E-002
 chl2c          50   4.8186439236481700E-002   2.1533072915600981E-002  0.38132569999999999        1.0128148638734656E-004   2.7931558207128782E-006
 chl          50   3.3463499938122619E-005   6.9445886577955689E-004   4.8186439236481700E-002
 chl2c          51   2.0700971146093840E-002   2.0700971146093840E-002  0.22275920000000002        1.0128148638734656E-004   1.8473318174593576E-016
 chl          51   1.4022404085335648E-005   6.7737904595754190E-004   2.0700971146093840E-002
 chl2c          52   3.7581825176985564E-002   3.7581825176985564E-002  0.63698869999999996        1.0128148638734656E-004   1.6465468546263706E-016
 chl          52   2.5477686675917594E-005   6.7792574085836772E-004   3.7581825176985564E-002
 chl2c          53   3.7925801262726190E-002   3.7925801262726190E-002  0.75269794999999995        1.0128148638734656E-004   1.4740204239040788E-016
 chl          53   2.5710876918676064E-005   6.7792574085824098E-004   3.7925801262726190E-002
 chl2c          54   3.7082433371327092E-002   3.7082433371327092E-002  0.51861124999999997        1.0128148638734656E-004   1.2084429631442541E-016
 chl          54   2.5139136111192474E-005   6.7792574072635093E-004   3.7082433371327092E-002
 chl2c          55   6.3082213353269981E-002   3.7357235588660491E-002  0.57808280000000001        1.0128148638734656E-004   3.5858268732578584E-006
 chl          55   4.4162180097461509E-005   7.0007340817524247E-004   6.3082213353269981E-002
 chl2c          56   3.7507394187257688E-002   3.7507394187257688E-002  0.61626080000000005        1.0128148638734656E-004   1.6509124533059271E-016
 chl          56   2.5427227992063622E-005   6.7792574085837087E-004   3.7507394187257688E-002
 chl2c          57   4.6561179727299999E-002   3.7727617852646313E-002  0.68163462500000005        1.0128148638734656E-004   2.5307645111609491E-006
 chl          57   3.2302216349964863E-005   6.9375854604958071E-004   4.6561179727299999E-002
 chl2c          58   4.4294654007734961E-002   3.7765358178394853E-002  0.69416802499999997        1.0128148638734656E-004   2.3960023944600143E-006
 chl          58   3.0693049753325014E-005   6.9292898750186044E-004   4.4294654007734961E-002
 chl2c          59   3.7173699120809672E-002   3.7173699120809672E-002  0.53705127500000005        1.0128148638734656E-004   1.6794441100853071E-016
 chl          59   2.5201009453654569E-005   6.7792579295793446E-004   3.7173699120809672E-002
 chl2c          60   3.7607757740906807E-002   3.7607757740906807E-002  0.64452155000000000        1.0128148638734656E-004   1.4752954888623594E-006
 chl          60   2.5874153599963101E-005   6.8800043273569594E-004   3.7607757740906807E-002
 chl2c          61   3.7805373434125003E-002   3.7805373434125003E-002  0.70794139999999994        1.0128148638734656E-004   1.4425238443779154E-016
 chl          61   2.5629235788772003E-005   6.7792574072652288E-004   3.7805373434125003E-002
 chl2c          62   3.7956103087269030E-002   3.7956103087269030E-002  0.76481592499999995        1.0128148638734656E-004   1.1766055590022235E-016
 chl          62   2.5731419300521704E-005   6.7792574072632751E-004   3.7956103087269030E-002
 chl2c          63   4.5726732355430705E-002   3.7855601011927406E-002  0.72597904999999996        1.0128148638734656E-004   2.4712933267593922E-006
 chl          63   3.1707358728764433E-005   6.9340967734815031E-004   4.5726732355430705E-002
 chl2c          64   2.5708982294816416E-002   2.5708982294816416E-002  0.48435739999999999        5.3436859380670347E-005   9.8391922629149627E-017
 chl          64   1.7414725899385780E-005   6.7737904595690786E-004   2.5708982294816416E-002
 chl2c          65   3.7953597170552002E-002   3.7953597170552002E-002  0.76379975000000000        1.0128148638734656E-004   1.3004069969211361E-016
 chl          65   2.5729720485426867E-005   6.7792574099907515E-004   3.7953597170552002E-002
 chl2c          66   3.1840477731474713E-002   3.1840477731474713E-002  0.35213202499999996        6.3825421510774126E-005   1.0572381593294222E-016
 chl          66   2.1568072428560204E-005   6.7737904595696098E-004   3.1840477731474713E-002
 chl2c          67   3.7937587124568600E-002   3.7937587124568600E-002  0.75736760000000003        1.0128148638734656E-004   1.3760640359562659E-016
 chl          67   2.5718866852798313E-005   6.7792574072647409E-004   3.7937587124568600E-002
 chl2c          68   4.0396497414557336E-002   3.7855407263856986E-002  0.72590779999999999        1.0128148638734656E-004   2.1662602221824592E-006
 chl          68   2.7935035519302031E-005   6.9152122850223456E-004   4.0396497414557336E-002
 chl2c          69   4.6660635257382566E-002   2.1732330561541505E-002  0.45524217500000003        1.0128148638734656E-004   2.6327793727537498E-006
 chl          69   3.2365185721649762E-005   6.9362934180217778E-004   4.6660635257382566E-002
 chl2c          70   3.2658010878182209E-002   3.2658010878182209E-002  0.48694062500000002        6.3825421510774126E-005   1.3740165632709094E-016
 chl          70   2.2121852251522708E-005   6.7737904595719343E-004   3.2658010878182209E-002
 chl2c          71   4.3481058864416305E-002   4.3481058864416305E-002  0.23986107500000001        4.3552383342294356E-005   1.1560992336337945E-016
 chl          71   2.9453158170779928E-005   6.7737904595703341E-004   4.3481058864416305E-002
 chl2c          72   3.7549776402781669E-002   3.7549776402781669E-002  0.62790522500000001        1.0128148638734656E-004   1.6561382025363665E-016
 chl          72   2.5455959986922078E-005   6.7792574085837466E-004   3.7549776402781669E-002
 chl2c          73   3.1852614277819484E-002   3.1852614277819484E-002  0.35362212500000001        6.3825421510774126E-005   1.2657101671116662E-016
 chl          73   2.1576293470749300E-005   6.7737904595711375E-004   3.1852614277819484E-002
 chl2c          74   3.7616827685877569E-002   3.7616827685877569E-002  0.64719590000000005        1.0128148638734656E-004   1.7470357445508717E-006
 chl          74   2.5932523120899590E-005   6.8938623260449475E-004   3.7616827685877569E-002
 chl2c          75   3.7826830779512356E-002   3.7826830779512356E-002  0.71554212500000003        1.0128148638734656E-004   1.3048371099314903E-016
 chl          75   2.5643782280515524E-005   6.7792574085811662E-004   3.7826830779512356E-002
 chl2c          76   5.6747854470788311E-002   3.7257729557919804E-002  0.55513977500000000        1.0128148638734656E-004   3.2009645814605815E-006
 chl          76   3.9594598011613150E-005   6.9772854640689510E-004   5.6747854470788311E-002
 chl2c          77   3.7138172437479272E-002   3.7138172437479272E-002  0.52973029999999999        1.0128148638734656E-004   7.6014848274584749E-007
 chl          77   2.5383302786584536E-005   6.8348281890597549E-004   3.7138172437479272E-002
 chl2c          78   7.9896894787799502E-002   4.7515248899399322E-002  0.45117492500000000        4.3552383342294356E-005   2.1142558195455063E-006
 chl          78   5.5127457679052090E-005   6.8998248086445308E-004   7.9896894787799502E-002
 prod   5.9358559270949307E-007   74.643295236146201        10.000000000000000     
 chl2c           1   3.7477407714772232E-002   3.7477407714772232E-002  0.60826437499999997        8.6848597894128215E-005   1.4167650510423276E-007
 chl           1   2.0350874136161211E-005   5.4301712357067954E-004   3.7477407714772232E-002
 chl2c           2   5.0683036623591346E-002   3.2640259920490348E-002  0.48302390000000001        5.5283041052668222E-005   1.5651893758098878E-006
 chl           2   2.7825511929030741E-005   5.4901035499674159E-004   5.0683036623591346E-002
 chl2c           3   3.7922212503796585E-002   3.7922212503796585E-002  0.75128689999999998        8.6848597894128215E-005   1.4691363554821432E-016
 chl           3   2.0560913774624702E-005   5.4218655550665050E-004   3.7922212503796585E-002
 chl2c           4   6.7461979553647522E-002   3.7976509103863923E-002  0.77318742499999993        8.6848597894128215E-005   3.2095260285045757E-006
 chl           4   3.7654509244347289E-005   5.5815897329848500E-004   6.7461979553647522E-002
 chl2c           5   7.7635992468287715E-002   2.5710500362372445E-002  0.48489679999999996        4.5809812875658896E-005   2.1172314247933051E-006
 chl           5   4.2816678795101167E-005   5.5150552512857570E-004   7.7635992468287715E-002
 chl2c           6   3.1261039902252048E-002   3.1261039902252048E-002  0.29222855000000003        5.5283041052668222E-005   1.3443135205877617E-016
 chl           6   1.6922643588232751E-005   5.4133335426930699E-004   3.1261039902252048E-002
 chl2c           7   6.5709554062158754E-002   4.3064391842467263E-002  0.22770740000000000        3.7962152044459779E-005   1.7531426412634840E-006
 chl           7   3.6085930675617163E-005   5.4917327001612634E-004   6.5709554062158754E-002
 chl2c           8   4.7969800906495587E-002   4.7969800906495587E-002  0.49578364999999996        3.7962152044459779E-005   3.1726408212118374E-007
 chl           8   2.6056631696158533E-005   5.4318823934560475E-004   4.7969800906495587E-002
 chl2c           9   6.9410013589357361E-002   2.4803669054600401E-002  0.28700202499999999        4.5809812875658896E-005   2.0969721650567399E-006
 chl           9   3.8244733989002527E-005   5.5099735630748515E-004   6.9410013589357361E-002
 chl2c          10   9.3461711452347371E-002   2.5387016219684602E-002  0.39094662499999999        4.5809812875658896E-005   2.8132917571821598E-006
 chl          10   5.1810055233021628E-005   5.5434524392844692E-004   9.3461711452347371E-002
 chl2c          11   2.1820572217820047E-002   2.1820572217820047E-002  0.49737575000000001        8.6848597894128215E-005   1.3612107523567972E-016
 chl          11   1.1812203550748407E-005   5.4133335426931751E-004   2.1820572217820047E-002
 chl2c          12   4.5290941298723353E-002   4.5290941298723353E-002  0.30768942500000002        3.7962152044459779E-005   8.3211745544142947E-017
 chl          12   2.4517497171238575E-005   5.4133335426900624E-004   4.5290941298723353E-002
 chl2c          13   3.7935816987997487E-002   3.7935816987997487E-002  0.75666275000000005        8.6848597894128215E-005   1.2198165100234632E-016
 chl          13   2.0568289939219738E-005   5.4218655540560362E-004   3.7935816987997487E-002
 chl2c          14   4.6856526101924839E-002   4.6856526101924839E-002  0.39804095000000000        3.7962152044459779E-005   1.0666345722913328E-016
 chl          14   2.5365000444154674E-005   5.4133335426914404E-004   4.6856526101924839E-002
 chl2c          15   5.8639983838862125E-002   2.0954299823745293E-002  0.25607262500000000        8.6848597894128215E-005   3.3027131518225157E-006
 chl          15   3.2645782969601619E-005   5.5671541553131319E-004   5.8639983838862125E-002
 chl2c          16   3.7823443882273475E-002   3.7823443882273475E-002  0.71433214999999994        8.6848597894128215E-005   1.5299977902169031E-016
 chl          16   2.0507362755930304E-005   5.4218655550668639E-004   3.7823443882273475E-002
 chl2c          17   3.7542254757581245E-002   3.7542254757581245E-002  0.62580860000000005        8.6848597894128215E-005   1.5292247050173178E-016
 chl          17   2.0354905792967465E-005   5.4218655550668585E-004   3.7542254757581245E-002
 chl2c          18   2.5694475239060960E-002   2.5694475239060960E-002  0.47925950000000000        4.5809812875658896E-005   1.4218926366682920E-016
 chl          18   1.3909276467351708E-005   5.4133335426935307E-004   2.5694475239060960E-002
 chl2c          19   4.3370970376803458E-002   3.7570220750293731E-002  0.63367130000000005        8.6848597894128215E-005   2.0217291216803209E-006
 chl          19   2.3953005702590390E-005   5.5228198711000989E-004   4.3370970376803458E-002
 chl2c          20   3.7020645196759419E-002   3.7020645196759419E-002  0.50678202500000002        8.6848597894128215E-005   1.3442406026949742E-016
 chl          20   2.0072096098126703E-005   5.4218655540567680E-004   3.7020645196759419E-002
 chl2c          21   3.7838475073783531E-002   3.7838475073783531E-002  0.71973185000000006        8.6848597894128215E-005   1.5784636235882964E-006
 chl          21   2.0824580931323123E-005   5.5035465596105584E-004   3.7838475073783531E-002
 chl2c          22   6.7074761954866086E-002   3.7613353106285476E-002  0.64616892500000001        8.6848597894128215E-005   3.2500409782948310E-006
 chl          22   3.7445056786213086E-005   5.5825851176944134E-004   6.7074761954866086E-002
 chl2c          23   3.2286562315070731E-002   3.2286562315070731E-002  0.41564179999999995        5.5283041052668222E-005   1.0925957922540603E-016
 chl          23   1.7477793075837467E-005   5.4133335426915911E-004   3.2286562315070731E-002
 chl2c          24   3.7348402796863071E-002   3.7348402796863071E-002  0.57597492500000003        8.6848597894128215E-005   1.0895086472939840E-016
 chl          24   2.0249801862329342E-005   5.4218655540552707E-004   3.7348402796863071E-002
 chl2c          25   4.5426679235459781E-002   4.5426679235459781E-002  0.31406487500000002        3.7962152044459779E-005   8.7342936382162977E-017
 chl          25   2.4590976643834761E-005   5.4133335426903052E-004   4.5426679235459781E-002
 chl2c          26   4.7955660680174553E-002   4.7955660680174553E-002  0.49427735000000000        3.7962152044459779E-005   8.0445481520362409E-017
 chl          26   2.5959998652184415E-005   5.4133335426899019E-004   4.7955660680174553E-002
 chl2c          27   4.5333133499525620E-002   4.5333133499525620E-002  0.30964730000000001        3.7962152044459779E-005   1.0585897990424835E-016
 chl          27   2.4540337216828892E-005   5.4133335426913938E-004   4.5333133499525620E-002
 chl2c          28   3.1209236063453518E-002   3.1209236063453518E-002  0.28776342500000002        5.5283041052668222E-005   1.0528530550704698E-016
 chl          28   1.6894600442406575E-005   5.4133335426913591E-004   3.1209236063453518E-002
 chl2c          29   5.9005125287201518E-002   3.7743217595736761E-002  0.68676297499999994        8.6848597894128215E-005   2.8030914967405308E-006
 chl          29   3.2814372406646043E-005   5.5612749311056259E-004   5.9005125287201518E-002
 chl2c          30   2.5380056985171612E-002   2.5380056985171612E-002  0.38930277499999999        4.5809812875658896E-005   1.5611891491058415E-016
 chl          30   1.3739071379332351E-005   5.4133335426943493E-004   2.5380056985171612E-002
 chl2c          31   5.2081163629549537E-002   3.7576959810037038E-002  0.63559385000000002        8.6848597894128215E-005   2.4634450452588899E-006
 chl          31   2.8876187474102583E-005   5.5444589678328466E-004   5.2081163629549537E-002
 chl2c          32   6.0724551441085024E-002   2.0893126428578448E-002  0.24722667500000001        8.6848597894128215E-005   3.4954949424701049E-006
 chl          32   3.3852215977819675E-005   5.5747165148948207E-004   6.0724551441085024E-002
 chl2c          33   4.7237303805058549E-002   3.7458922634011876E-002  0.60343137499999999        8.6848597894128215E-005   2.2254582388230315E-006
 chl          33   2.6134792597419328E-005   5.5326596761901990E-004   4.7237303805058549E-002
 chl2c          34   5.4354342494858439E-002   2.5350269098008315E-002  0.38241020000000003        4.5809812875658896E-005   1.4512573751485559E-006
 chl          34   2.9805122961189269E-005   5.4834851445417884E-004   5.4354342494858439E-002
 chl2c          35   2.5740370148566064E-002   2.5740370148566064E-002  0.49574644999999995        4.5809812875658896E-005   1.1216026726069176E-016
 chl          35   1.3934120912653459E-005   5.4133335426917689E-004   2.5740370148566064E-002
 chl2c          36   3.7770393924465726E-002   3.7770393924465726E-002  0.69587337500000002        8.6848597894128215E-005   1.1615428562995939E-016
 chl          36   2.0478599782028567E-005   5.4218655550646987E-004   3.7770393924465726E-002
 chl2c          37   2.1353674699533250E-002   2.1353674699533250E-002  0.33194060000000003        8.6848597894128215E-005   1.0257652415929887E-016
 chl          37   1.1559456351069991E-005   5.4133335426912062E-004   2.1353674699533250E-002
 chl2c          38   2.1543295686358745E-002   2.1543295686358745E-002  0.38455722500000000        8.6848597894128215E-005   1.5941620496572930E-016
 chl          38   1.1662104515915246E-005   5.4133335426945434E-004   2.1543295686358745E-002
 chl2c          39   2.5670077108751441E-002   2.5670077108751441E-002  0.47091117500000002        4.5809812875658896E-005   1.2786708859342006E-016
 chl          39   1.3896068945631196E-005   5.4133335426926894E-004   2.5670077108751441E-002
 chl2c          40   3.7687445774703773E-002   3.7687445774703773E-002  0.66875547499999999        8.6848597894128215E-005   1.5329827581423884E-016
 chl          40   2.0433626410431724E-005   5.4218655550668802E-004   3.7687445774703773E-002
 chl2c          41   2.5582381488167241E-002   2.5582381488167241E-002  0.44304987499999998        4.5809812875658896E-005   9.2251588885984403E-017
 chl          41   1.3848596381180289E-005   5.4133335426906034E-004   2.5582381488167241E-002
 chl2c          42   3.7949995630725070E-002   3.7949995630725070E-002  0.76234377499999995        8.6848597894128215E-005   1.2909310472707121E-016
 chl          42   2.0575977408682116E-005   5.4218655540564536E-004   3.7949995630725070E-002
 chl2c          43   2.1185090152268007E-002   2.1185090152268007E-002  0.29539925000000000        8.6848597894128215E-005   4.5367774269979312E-008
 chl          43   1.1473852897640280E-005   5.4160038098360072E-004   2.1185090152268007E-002
 chl2c          44   3.7536352708156646E-002   3.7536352708156646E-002  0.62417262500000004        8.6848597894128215E-005   1.1013775301420978E-016
 chl          44   2.0351705777322641E-005   5.4218655540553401E-004   3.7536352708156646E-002
 chl2c          45   4.6544927192009838E-002   4.6544927192009838E-002  0.37662252499999999        3.7962152044459779E-005   1.2480329998578725E-007
 chl          45   2.5230390044870307E-005   5.4206530264379695E-004   4.6544927192009838E-002
 chl2c          46   5.7803740521444769E-002   3.7083195475449568E-002  0.51876034999999998        8.6848597894128215E-005   2.8248506182410233E-006
 chl          46   3.2144431881099259E-005   5.5609605176284234E-004   5.7803740521444769E-002
 chl2c          47   3.7519784612651236E-002   3.7519784612651236E-002  0.61962282499999999        8.6848597894128215E-005   1.4095647551342999E-016
 chl          47   2.0342722778697725E-005   5.4218655540571507E-004   3.7519784612651236E-002
 chl2c          48   3.7823212136301673E-002   3.7823212136301673E-002  0.71424949999999998        8.6848597894128215E-005   1.3550926879797775E-016
 chl          48   2.0507237102559827E-005   5.4218655540568298E-004   3.7823212136301673E-002
 chl2c          49   3.7152990741888416E-002   3.7152990741888416E-002  0.53276120000000005        8.6848597894128215E-005   1.2602490692142062E-016
 chl          49   2.0143852073361643E-005   5.4218655540562736E-004   3.7152990741888416E-002
 chl2c          50   5.1166516891981734E-002   2.1533072915600981E-002  0.38132569999999999        8.6848597894128215E-005   2.5662051043884705E-006
 chl          50   2.8337144903817318E-005   5.5382204271672852E-004   5.1166516891981734E-002
 chl2c          51   2.0700971146093840E-002   2.0700971146093840E-002  0.22275920000000002        8.6848597894128215E-005   1.6962042349617109E-016
 chl          51   1.1206126147151407E-005   5.4133335426951419E-004   2.0700971146093840E-002
 chl2c          52   3.7581825176985564E-002   3.7581825176985564E-002  0.63698869999999996        8.6848597894128215E-005   1.5010744440096613E-016
 chl          52   2.0376360342363620E-005   5.4218655550666915E-004   3.7581825176985564E-002
 chl2c          53   3.7925801262726190E-002   3.7925801262726190E-002  0.75269794999999995        8.6848597894128215E-005   1.3427841188711434E-016
 chl          53   2.0562859551464473E-005   5.4218655550657623E-004   3.7925801262726190E-002
 chl2c          54   3.7082433371327092E-002   3.7082433371327092E-002  0.51861124999999997        8.6848597894128215E-005   1.0995942443262325E-016
 chl          54   2.0105596815655024E-005   5.4218655540553304E-004   3.7082433371327092E-002
 chl2c          55   6.5807153145604633E-002   3.7357235588660491E-002  0.57808280000000001        8.6848597894128215E-005   3.2247218225040346E-006
 chl          55   3.6724818813091639E-005   5.5806727775982738E-004   6.5807153145604633E-002
 chl2c          56   3.7507394187257688E-002   3.7507394187257688E-002  0.61626080000000005        8.6848597894128215E-005   1.5050829866104813E-016
 chl          56   2.0336004860420205E-005   5.4218655550667164E-004   3.7507394187257688E-002
 chl2c          57   4.4661785974515818E-002   3.7727617852646313E-002  0.68163462500000005        8.6848597894128215E-005   2.0753895752098495E-006
 chl          57   2.4678639089508842E-005   5.5256722388107287E-004   4.4661785974515818E-002
 chl2c          58   4.9811343192442195E-002   3.7765358178394853E-002  0.69416802499999997        8.6848597894128215E-005   2.3302329420158531E-006
 chl          58   2.7586434383273068E-005   5.5381831958827238E-004   4.9811343192442195E-002
 chl2c          59   3.7173699120809672E-002   3.7173699120809672E-002  0.53705127500000005        8.6848597894128215E-005   1.2297189691748432E-008
 chl          59   2.0157781818260644E-005   5.4225923959707331E-004   3.7173699120809672E-002
 chl2c          60   3.7607757740906807E-002   3.7607757740906807E-002  0.64452155000000000        8.6848597894128215E-005   1.4757459703314620E-006
 chl          60   2.0682548140823332E-005   5.4995430153833549E-004   3.7607757740906807E-002
 chl2c          61   3.7805373434125003E-002   3.7805373434125003E-002  0.70794139999999994        8.6848597894128215E-005   1.3139127774749006E-016
 chl          61   2.0497565198072837E-005   5.4218655540565880E-004   3.7805373434125003E-002
 chl2c          62   3.7956103087269030E-002   3.7956103087269030E-002  0.76481592499999995        8.6848597894128215E-005   1.0704787702212602E-016
 chl          62   2.0579288789503064E-005   5.4218655540551591E-004   3.7956103087269030E-002
 chl2c          63   4.8645730324963644E-002   3.7855601011927406E-002  0.72597904999999996        8.6848597894128215E-005   2.2641187004422564E-006
 chl          63   2.6925785267961642E-005   5.5350767864089550E-004   4.8645730324963644E-002
 chl2c          64   2.5708982294816416E-002   2.5708982294816416E-002  0.48435739999999999        4.5809812875658896E-005   8.9728495640320288E-017
 chl          64   1.3917129620496473E-005   5.4133335426904548E-004   2.5708982294816416E-002
 chl2c          65   3.7953597170552002E-002   3.7953597170552002E-002  0.76379975000000000        8.6848597894128215E-005   1.1837414768214816E-016
 chl          65   2.0577939048805925E-005   5.4218679078915448E-004   3.7953597170552002E-002
 chl2c          66   3.1840477731474713E-002   3.1840477731474713E-002  0.35213202499999996        5.5283041052668222E-005   8.6906296179406075E-017
 chl          66   1.7236312611907496E-005   5.4133335426902792E-004   3.1840477731474713E-002
 chl2c          67   3.7937587124568600E-002   3.7937587124568600E-002  0.75736760000000003        8.6848597894128215E-005   1.2530188519342647E-016
 chl          67   2.0569249683470574E-005   5.4218655540562324E-004   3.7937587124568600E-002
 chl2c          68   4.6503899931055866E-002   3.7855407263856986E-002  0.72590779999999999        8.6848597894128215E-005   2.1576232764936669E-006
 chl          68   2.5715765593013170E-005   5.5298083883583858E-004   4.6503899931055866E-002
 chl2c          69   4.8389276047907152E-002   2.1732330561541505E-002  0.45524217500000003        8.6848597894128215E-005   2.3511861525044926E-006
 chl          69   2.6754524903731329E-005   5.5290194623377651E-004   4.8389276047907152E-002
 chl2c          70   3.2658010878182209E-002   3.2658010878182209E-002  0.48694062500000002        5.5283041052668222E-005   1.2636246204536062E-016
 chl          70   1.7678870572448341E-005   5.4133335426925951E-004   3.2658010878182209E-002
 chl2c          71   4.3481058864416305E-002   4.3481058864416305E-002  0.23986107500000001        3.7962152044459779E-005   9.5409707756128478E-017
 chl          71   2.3537747442245702E-005   5.4133335426907790E-004   4.3481058864416305E-002
 chl2c          72   3.7549776402781669E-002   3.7549776402781669E-002  0.62790522500000001        8.6848597894128215E-005   1.5098815361123170E-016
 chl          72   2.0358983927869994E-005   5.4218655550667435E-004   3.7549776402781669E-002
 chl2c          73   3.1852614277819484E-002   3.1852614277819484E-002  0.35362212500000001        5.5283041052668222E-005   1.0491695403903854E-016
 chl          73   1.7242882529252919E-005   5.4133335426913363E-004   3.1852614277819484E-002
 chl2c          74   3.8078845402439776E-002   3.7616827685877569E-002  0.64719590000000005        8.6848597894128215E-005   1.7569183762265036E-006
 chl          74   2.0980875149990022E-005   5.5098506607150811E-004   3.8078845402439776E-002
 chl2c          75   3.7826830779512356E-002   3.7826830779512356E-002  0.71554212500000003        8.6848597894128215E-005   1.1877967538732843E-016
 chl          75   2.0509199086070508E-005   5.4218655550648549E-004   3.7826830779512356E-002
 chl2c          76   5.9148893503252697E-002   3.7257729557919804E-002  0.55513977500000000        8.6848597894128215E-005   2.8748030255662045E-006
 chl          76   3.2908746058915917E-005   5.5637128794482364E-004   5.9148893503252697E-002
 chl2c          77   3.7138172437479272E-002   3.7138172437479272E-002  0.52973029999999999        8.6848597894128215E-005   8.4153586438847809E-007
 chl          77   2.0315959500930763E-005   5.4703713638930198E-004   3.7138172437479272E-002
 chl2c          78   7.3811027159386741E-002   4.7515248899399322E-002  0.45117492500000000        3.7962152044459779E-005   1.6750457886686039E-006
 chl          78   4.0548197442980563E-005   5.4935148586160735E-004   7.3811027159386741E-002
 prod   4.6815680502261047E-007   63.576479207775115        10.000000000000000     
 chl2c           1   3.7477407714772232E-002   3.7477407714772232E-002  0.60826437499999997        7.4634475928214459E-005   2.3787303775877005E-007
 chl           1   1.4648885558513978E-005   3.9087243360057478E-004   3.7477407714772232E-002
 chl2c           2   3.4932815439276760E-002   3.2640259920490348E-002  0.48302390000000001        4.7931874257590353E-005   9.0246490509822480E-007
 chl           2   1.3697871835458080E-005   3.9212046504722488E-004   3.4932815439276760E-002
 chl2c           3   3.7922212503796585E-002   3.7922212503796585E-002  0.75128689999999998        7.4634475928214459E-005   1.2667251407154923E-016
 chl           3   1.4784690019310373E-005   3.8986886690301105E-004   3.7922212503796585E-002
 chl2c           4   6.7794257295573659E-002   3.7976509103863923E-002  0.77318742499999993        7.4634475928214459E-005   2.7730387123567557E-006
 chl           4   2.7102412075228312E-005   3.9977445223812269E-004   6.7794257295573659E-002
 chl2c           5   7.3768961994068044E-002   2.5710500362372445E-002  0.48489679999999996        3.9434101272848589E-005   1.7154894752342664E-006
 chl           5   2.9127455725653575E-005   3.9484703238735813E-004   7.3768961994068044E-002
 chl2c           6   3.1261039902252048E-002   3.1261039902252048E-002  0.29222855000000003        4.7931874257590353E-005   1.0808318739285054E-016
 chl           6   1.2157808108149859E-005   3.8891246568141226E-004   3.1261039902252048E-002
 chl2c           7   5.0294068306888928E-002   4.3064391842467263E-002  0.22770740000000000        3.3113447406576332E-005   1.0687646023229594E-006
 chl           7   1.9738960158065068E-005   3.9247093787720815E-004   5.0294068306888928E-002
 chl2c           8   4.7969800906495587E-002   4.7969800906495587E-002  0.49578364999999996        3.3113447406576332E-005   2.8515784453083804E-007
 chl           8   1.8713352488692279E-005   3.9010694510008498E-004   4.7969800906495587E-002
 chl2c           9   7.3377156484546291E-002   2.4803669054600401E-002  0.28700202499999999        3.9434101272848589E-005   1.9437301994687206E-006
 chl           9   2.9005490944230118E-005   3.9529319932612631E-004   7.3377156484546291E-002
 chl2c          10   9.1465820288120947E-002   2.5387016219684602E-002  0.39094662499999999        3.9434101272848589E-005   2.3542320197405228E-006
 chl          10   3.6288673473003381E-005   3.9674572817138278E-004   9.1465820288120947E-002
 chl2c          11   2.1820572217820047E-002   2.1820572217820047E-002  0.49737575000000001        7.4634475928214459E-005   1.1757184947964138E-016
 chl          11   8.4862925438126029E-006   3.8891246568145286E-004   2.1820572217820047E-002
 chl2c          12   4.5290941298723353E-002   4.5290941298723353E-002  0.30768942500000002        3.3113447406576332E-005   5.1484354170337488E-017
 chl          12   1.7614211653507794E-005   3.8891246568117363E-004   4.5290941298723353E-002
 chl2c          13   3.7935816987997487E-002   3.7935816987997487E-002  0.75666275000000005        7.4634475928214459E-005   1.0513381596429879E-016
 chl          13   1.4789993981469885E-005   3.8986886683234714E-004   3.7935816987997487E-002
 chl2c          14   4.6856526101924839E-002   4.6856526101924839E-002  0.39804095000000000        3.3113447406576332E-005   8.4455751543878084E-017
 chl          14   1.8223087099560381E-005   3.8891246568131279E-004   4.6856526101924839E-002
 chl2c          15   5.7919583817423008E-002   2.0954299823745293E-002  0.25607262500000000        7.4634475928214459E-005   2.7931697876963602E-006
 chl          15   2.3066893044714892E-005   3.9825723053237916E-004   5.7919583817423008E-002
 chl2c          16   3.7823443882273475E-002   3.7823443882273475E-002  0.71433214999999994        7.4634475928214459E-005   1.3193358293674996E-016
 chl          16   1.4746183208752422E-005   3.8986886690303317E-004   3.7823443882273475E-002
 chl2c          17   3.7542254757581245E-002   3.7542254757581245E-002  0.62580860000000005        7.4634475928214459E-005   1.3186674645833529E-016
 chl          17   1.4636556323323195E-005   3.8986886690303289E-004   3.7542254757581245E-002
 chl2c          18   2.5694475239060960E-002   2.5694475239060960E-002  0.47925950000000000        3.9434101272848589E-005   1.2284184134560462E-016
 chl          18   9.9929017196148058E-006   3.8891246568147504E-004   2.5694475239060960E-002
 chl2c          19   4.4571550567842108E-002   3.7570220750293731E-002  0.63367130000000005        7.4634475928214459E-005   1.7891322094660413E-006
 chl          19   1.7662908462761846E-005   3.9628211802677208E-004   4.4571550567842108E-002
 chl2c          20   3.7020645196759419E-002   3.7020645196759419E-002  0.50678202500000002        7.4634475928214459E-005   1.1588017779380731E-016
 chl          20   1.4433196992264652E-005   3.8986886683239257E-004   3.7020645196759419E-002
 chl2c          21   3.7838475073783531E-002   3.7838475073783531E-002  0.71973185000000006        7.4634475928214459E-005   1.4845850624661220E-006
 chl          21   1.4955134785622779E-005   3.9523619163988130E-004   3.7838475073783531E-002
 chl2c          22   6.6527339112650935E-002   3.7613353106285476E-002  0.64616892500000001        7.4634475928214459E-005   2.7675544732967583E-006
 chl          22   2.6590720329344825E-005   3.9969613521320435E-004   6.6527339112650935E-002
 chl2c          23   3.2286562315070731E-002   3.2286562315070731E-002  0.41564179999999995        4.7931874257590353E-005   6.9066435385749810E-017
 chl          23   1.2556646558325408E-005   3.8891246568124762E-004   3.2286562315070731E-002
 chl2c          24   3.7348402796863071E-002   3.7348402796863071E-002  0.57597492500000003        7.4634475928214459E-005   9.3884562903863689E-017
 chl          24   1.4560979476409300E-005   3.8986886683229971E-004   3.7348402796863071E-002
 chl2c          25   4.5426679235459781E-002   4.5426679235459781E-002  0.31406487500000002        3.3113447406576332E-005   5.4222908967137079E-017
 chl          25   1.7667001829170959E-005   3.8891246568118517E-004   4.5426679235459781E-002
 chl2c          26   4.7955660680174553E-002   4.7955660680174553E-002  0.49427735000000000        3.3113447406576332E-005   4.9660888417968756E-017
 chl          26   1.8650554238496026E-005   3.8891246568116598E-004   4.7955660680174553E-002
 chl2c          27   4.5333133499525620E-002   4.5333133499525620E-002  0.30964730000000001        3.3113447406576332E-005   8.3781488258265520E-017
 chl          27   1.7630620726360502E-005   3.8891246568130997E-004   4.5333133499525620E-002
 chl2c          28   3.1209236063453518E-002   3.1209236063453518E-002  0.28776342500000002        4.7931874257590353E-005   8.3301021613455811E-017
 chl          28   1.2137660949467704E-005   3.8891246568130791E-004   3.1209236063453518E-002
 chl2c          29   5.7987207273059407E-002   3.7743217595736761E-002  0.68676297499999994        7.4634475928214459E-005   2.3634845203649239E-006
 chl          29   2.3097020010060323E-005   3.9831233639684338E-004   5.7987207273059407E-002
 chl2c          30   2.5380056985171612E-002   2.5380056985171612E-002  0.38930277499999999        3.9434101272848589E-005   1.3495192290163120E-016
 chl          30   9.8706205412407292E-006   3.8891246568152599E-004   2.5380056985171612E-002
 chl2c          31   4.8969988262131531E-002   3.7576959810037038E-002  0.63559385000000002        7.4634475928214459E-005   1.9799738463491562E-006
 chl          31   1.9438885160726497E-005   3.9695507086242411E-004   4.8969988262131531E-002
 chl2c          32   6.0414898744207704E-002   2.0893126428578448E-002  0.24722667500000001        7.4634475928214459E-005   2.9836276419061837E-006
 chl          32   2.4093435706659213E-005   3.9879957109038736E-004   6.0414898744207704E-002
 chl2c          33   4.8080842172594521E-002   3.7458922634011876E-002  0.60343137499999999        7.4634475928214459E-005   1.9495853485549096E-006
 chl          33   1.9080238164819436E-005   3.9683660482334345E-004   4.8080842172594521E-002
 chl2c          34   4.7545526717700508E-002   2.5350269098008315E-002  0.38241020000000003        3.9434101272848589E-005   1.0705618143196541E-006
 chl          34   1.8668933536467369E-005   3.9265383781135390E-004   4.7545526717700508E-002
 chl2c          35   2.5740370148566064E-002   2.5740370148566064E-002  0.49574644999999995        3.9434101272848589E-005   9.6792963829799259E-017
 chl          35   1.0010750822029841E-005   3.8891246568136537E-004   2.5740370148566064E-002
 chl2c          36   3.7770393924465726E-002   3.7770393924465726E-002  0.69587337500000002        7.4634475928214459E-005   1.0010250193864147E-016
 chl          36   1.4725500681807585E-005   3.8986886690289878E-004   3.7770393924465726E-002
 chl2c          37   2.1353674699533250E-002   2.1353674699533250E-002  0.33194060000000003        7.4634475928214459E-005   8.8494354912756743E-017
 chl          37   8.3047102787525181E-006   3.8891246568133035E-004   2.1353674699533250E-002
 chl2c          38   2.1543295686358745E-002   2.1543295686358745E-002  0.38455722500000000        7.4634475928214459E-005   1.3782120730319779E-016
 chl          38   8.3784562442882229E-006   3.8891246568153808E-004   2.1543295686358745E-002
 chl2c          39   2.5670077108751441E-002   2.5670077108751441E-002  0.47091117500000002        3.9434101272848589E-005   1.1040868460682971E-016
 chl          39   9.9834129825967685E-006   3.8891246568142267E-004   2.5670077108751441E-002
 chl2c          40   3.7687445774703773E-002   3.7687445774703773E-002  0.66875547499999999        7.4634475928214459E-005   1.3219164805148485E-016
 chl          40   1.4693161780653306E-005   3.8986886690303425E-004   3.7687445774703773E-002
 chl2c          41   2.5582381488167241E-002   2.5582381488167241E-002  0.44304987499999998        3.9434101272848589E-005   7.9561185176837952E-017
 chl          41   9.9493070625625791E-006   3.8891246568129267E-004   2.5582381488167241E-002
 chl2c          42   3.7949995630725070E-002   3.7949995630725070E-002  0.76234377499999995        7.4634475928214459E-005   1.1127527301959770E-016
 chl          42   1.4795521792844296E-005   3.8986886683237316E-004   3.7949995630725070E-002
 chl2c          43   2.1185090152268007E-002   2.1185090152268007E-002  0.29539925000000000        7.4634475928214459E-005   2.0918724054599784E-007
 chl          43   8.2578211839514749E-006   3.8979400722858947E-004   2.1185090152268007E-002
 chl2c          44   3.7536352708156646E-002   3.7536352708156646E-002  0.62417262500000004        7.4634475928214459E-005   9.4908967398485249E-017
 chl          44   1.4634255295346718E-005   3.8986886683230399E-004   3.7536352708156646E-002
 chl2c          45   4.6544927192009838E-002   4.6544927192009838E-002  0.37662252499999999        3.3113447406576332E-005   6.4228459187429169E-017
 chl          45   1.8101926880181576E-005   3.8891299164582328E-004   4.6544927192009838E-002
 chl2c          46   5.5929968600299439E-002   3.7083195475449568E-002  0.51876034999999998        7.4634475928214459E-005   2.3393703575738038E-006
 chl          46   2.2268499517475663E-005   3.9814968745318480E-004   5.5929968600299439E-002
 chl2c          47   3.7519784612651236E-002   3.7519784612651236E-002  0.61962282499999999        7.4634475928214459E-005   1.2152421478296305E-016
 chl          47   1.4627795910730669E-005   3.8986886683241637E-004   3.7519784612651236E-002
 chl2c          48   3.7823212136301673E-002   3.7823212136301673E-002  0.71424949999999998        7.4634475928214459E-005   1.1681770248054559E-016
 chl          48   1.4746092855541284E-005   3.8986886683239658E-004   3.7823212136301673E-002
 chl2c          49   3.7152990741888416E-002   3.7152990741888416E-002  0.53276120000000005        7.4634475928214459E-005   1.0862537408751838E-016
 chl          49   1.4484794399973273E-005   3.8986886683236199E-004   3.7152990741888416E-002
 chl2c          50   5.1303210910453700E-002   2.1533072915600981E-002  0.38132569999999999        7.4634475928214459E-005   2.2121092905877384E-006
 chl          50   2.0348680740101305E-005   3.9663561751755765E-004   5.1303210910453700E-002
 chl2c          51   2.0700971146093840E-002   2.0700971146093840E-002  0.22275920000000002        7.4634475928214459E-005   1.4670775665711608E-016
 chl          51   8.0508657304305073E-006   3.8891246568157560E-004   2.0700971146093840E-002
 chl2c          52   3.7581825176985564E-002   3.7581825176985564E-002  0.63698869999999996        7.4634475928214459E-005   1.2943318494709244E-016
 chl          52   1.4651983597898848E-005   3.8986886690302259E-004   3.7581825176985564E-002
 chl2c          53   3.7925801262726190E-002   3.7925801262726190E-002  0.75269794999999995        7.4634475928214459E-005   1.1575435342535187E-016
 chl          53   1.4786089164686089E-005   3.8986886690296475E-004   3.7925801262726190E-002
 chl2c          54   3.7082433371327092E-002   3.7082433371327092E-002  0.51861124999999997        7.4634475928214459E-005   9.4755049107918644E-017
 chl          54   1.4457286277863686E-005   3.8986886683230339E-004   3.7082433371327092E-002
 chl2c          55   6.5252658068174679E-002   3.7357235588660491E-002  0.57808280000000001        7.4634475928214459E-005   2.7448853158047465E-006
 chl          55   2.6073393180376318E-005   3.9957595525281673E-004   6.5252658068174679E-002
 chl2c          56   3.7507394187257688E-002   3.7507394187257688E-002  0.61626080000000005        7.4634475928214459E-005   1.2977970193292693E-016
 chl          56   1.4622965272271226E-005   3.8986886690302406E-004   3.7507394187257688E-002
 chl2c          57   4.0240020174887432E-002   3.7727617852646313E-002  0.68163462500000005        7.4634475928214459E-005   1.5958571819472292E-006
 chl          57   1.5919456388010227E-005   3.9561253495456930E-004   4.0240020174887432E-002
 chl2c          58   5.2265547706379235E-002   3.7765358178394853E-002  0.69416802499999997        7.4634475928214459E-005   2.1092135430421574E-006
 chl          58   2.0771492963391426E-005   3.9742227671817119E-004   5.2265547706379235E-002
 chl2c          59   3.7173699120809672E-002   3.7173699120809672E-002  0.53705127500000005        7.4634475928214459E-005   1.2301070817564331E-007
 chl          59   1.4512122972060499E-005   3.9038684110768724E-004   3.7173699120809672E-002
 chl2c          60   3.7607757740906807E-002   3.7607757740906807E-002  0.64452155000000000        7.4634475928214459E-005   1.3677088084556210E-006
 chl          60   1.4852518841509237E-005   3.9493231539709203E-004   3.7607757740906807E-002
 chl2c          61   3.7805373434125003E-002   3.7805373434125003E-002  0.70794139999999994        7.4634475928214459E-005   1.1326032999160418E-016
 chl          61   1.4739138100937335E-005   3.8986886683238151E-004   3.7805373434125003E-002
 chl2c          62   3.7956103087269030E-002   3.7956103087269030E-002  0.76481592499999995        7.4634475928214459E-005   9.2242180434120545E-017
 chl          62   1.4797902900003269E-005   3.8986886683229282E-004   3.7956103087269030E-002
 chl2c          63   4.8858567298824748E-002   3.7855601011927406E-002  0.72597904999999996        7.4634475928214459E-005   1.9548271252375287E-006
 chl          63   1.9391381723193617E-005   3.9688805454719220E-004   4.8858567298824748E-002
 chl2c          64   2.5708982294816416E-002   2.5708982294816416E-002  0.48435739999999999        3.9434101272848589E-005   7.7379281927490108E-017
 chl          64   9.9985436944335127E-006   3.8891246568128346E-004   2.5708982294816416E-002
 chl2c          65   3.7953597170552002E-002   3.7953597170552002E-002  0.76379975000000000        7.4634475928214459E-005   7.7807892245982282E-008
 chl          65   1.4809356090031548E-005   3.9019637647211080E-004   3.7953597170552002E-002
 chl2c          66   3.1840477731474713E-002   3.1840477731474713E-002  0.35213202499999996        4.7931874257590353E-005   5.3932587415867730E-017
 chl          66   1.2383158703014660E-005   3.8891246568118393E-004   3.1840477731474713E-002
 chl2c          67   3.7937587124568600E-002   3.7937587124568600E-002  0.75736760000000003        7.4634475928214459E-005   1.0800096921735512E-016
 chl          67   1.4790684102609465E-005   3.8986886683235928E-004   3.7937587124568600E-002
 chl2c          68   4.9695162596777823E-002   3.7855407263856986E-002  0.72590779999999999        7.4634475928214459E-005   1.9907732111588089E-006
 chl          68   1.9729632708736159E-005   3.9701314328762063E-004   4.9695162596777823E-002
 chl2c          69   4.7462849515343193E-002   2.1732330561541505E-002  0.45524217500000003        7.4634475928214459E-005   1.9773365160652800E-006
 chl          69   1.8790469089400442E-005   3.9589846124443278E-004   4.7462849515343193E-002
 chl2c          70   3.2658010878182209E-002   3.2658010878182209E-002  0.48694062500000002        4.7931874257590353E-005   1.0114638015855696E-016
 chl          70   1.2701107534883270E-005   3.8891246568138299E-004   3.2658010878182209E-002
 chl2c          71   4.3481058864416305E-002   4.3481058864416305E-002  0.23986107500000001        3.3113447406576332E-005   5.9624031931065438E-017
 chl          71   1.6910325813389888E-005   3.8891246568120789E-004   4.3481058864416305E-002
 chl2c          72   3.7549776402781669E-002   3.7549776402781669E-002  0.62790522500000001        7.4634475928214459E-005   1.3019451837690602E-016
 chl          72   1.4639488778614467E-005   3.8986886690302585E-004   3.7549776402781669E-002
 chl2c          73   3.1852614277819484E-002   3.1852614277819484E-002  0.35362212500000001        4.7931874257590353E-005   6.6082422703159763E-017
 chl          73   1.2387878757180087E-005   3.8891246568123505E-004   3.1852614277819484E-002
 chl2c          74   4.1022417962922789E-002   3.7616827685877569E-002  0.64719590000000005        7.4634475928214459E-005   1.6344422149927069E-006
 chl          74   1.6234160506601019E-005   3.9573875243711638E-004   4.1022417962922789E-002
 chl2c          75   3.7826830779512356E-002   3.7826830779512356E-002  0.71554212500000003        7.4634475928214459E-005   1.0236911636982516E-016
 chl          75   1.4747503654536538E-005   3.8986886690290832E-004   3.7826830779512356E-002
 chl2c          76   5.8613465147297317E-002   3.7257729557919804E-002  0.55513977500000000        7.4634475928214459E-005   2.4454960645742399E-006
 chl          76   2.3359522582978926E-005   3.9853508957840621E-004   5.8613465147297317E-002
 chl2c          77   3.7138172437479272E-002   3.7138172437479272E-002  0.52973029999999999        7.4634475928214459E-005   8.4396835936175134E-007
 chl          77   1.4606822896246045E-005   3.9331022335135327E-004   3.7138172437479272E-002
 chl2c          78   5.9289085144527312E-002   4.7515248899399322E-002  0.45117492500000000        3.3113447406576332E-005   1.1301459525275470E-006
 chl          78   2.3291471748611672E-005   3.9284586179453966E-004   5.9289085144527312E-002
 prod   2.7126316473763086E-007   54.339342264548570        10.000000000000000     
 chl2c           1   3.7477407714772232E-002   3.7477407714772232E-002  0.60826437499999997        6.4257144370235064E-005   3.0061861598306645E-007
 chl           1   8.9314155737203162E-006   2.3831465723814929E-004   3.7477407714772232E-002
 chl2c           2   3.2640259920490348E-002   3.2640259920490348E-002  0.48302390000000001        4.1594072640852150E-005   2.4500753829634465E-007
 chl           2   7.7423745764537876E-006   2.3720321453670200E-004   3.2640259920490348E-002
 chl2c           3   3.7922212503796585E-002   3.7922212503796585E-002  0.75128689999999998        6.4257144370235064E-005   1.0695599961881108E-016
 chl           3   9.0081339355205087E-006   2.3754241487409676E-004   3.7922212503796585E-002
 chl2c           4   6.6478368251894335E-002   3.7976509103863923E-002  0.77318742499999993        6.4257144370235064E-005   2.3367696408216505E-006
 chl           4   1.6129089024671232E-005   2.4262161435064443E-004   6.6478368251894335E-002
 chl2c           5   6.7857787696044544E-002   2.5710500362372445E-002  0.48489679999999996        3.4053605740908666E-005   1.3434002949787257E-006
 chl           5   1.6246846546843001E-005   2.3942493704064618E-004   6.7857787696044544E-002
 chl2c           6   3.1261039902252048E-002   3.1261039902252048E-002  0.29222855000000003        4.1594072640852150E-005   7.4276778718376289E-017
 chl           6   7.3959366518081904E-006   2.3658639235719686E-004   3.1261039902252048E-002
 chl2c           7   4.3064391842467263E-002   4.3064391842467263E-002  0.22770740000000000        2.8902173602288183E-005   3.0966574282686833E-007
 chl           7   1.0221581723166812E-005   2.3735576623392513E-004   4.3064391842467263E-002
 chl2c           8   4.7969800906495587E-002   4.7969800906495587E-002  0.49578364999999996        2.8902173602288183E-005   1.0920848253951741E-007
 chl           8   1.1362222511138716E-005   2.3686199017766110E-004   4.7969800906495587E-002
 chl2c           9   7.4453953584606020E-002   2.4803669054600401E-002  0.28700202499999999        3.4053605740908666E-005   1.7117828244731810E-006
 chl           9   1.7868499137420481E-005   2.3999395971787513E-004   7.4453953584606020E-002
 chl2c          10   8.6932006521517280E-002   2.5387016219684602E-002  0.39094662499999999        3.4053605740908666E-005   1.9034251926037799E-006
 chl          10   2.0903441708859203E-005   2.4045737059669978E-004   8.6932006521517280E-002
 chl2c          11   2.1820572217820047E-002   2.1820572217820047E-002  0.49737575000000001        6.4257144370235064E-005   9.8469386839084519E-017
 chl          11   5.1624504601850890E-006   2.3658639235725948E-004   2.1820572217820047E-002
 chl2c          12   4.5290941298723353E-002   4.5290941298723353E-002  0.30768942500000002        2.8902173602288183E-005   1.5142694646920422E-017
 chl          12   1.0715220408319673E-005   2.3658639235704537E-004   4.5290941298723353E-002
 chl2c          13   3.7935816987997487E-002   3.7935816987997487E-002  0.75666275000000005        6.4257144370235064E-005   8.8967352710509766E-017
 chl          13   9.0113655759637532E-006   2.3754241483226417E-004   3.7935816987997487E-002
 chl2c          14   4.6856526101924839E-002   4.6856526101924839E-002  0.39804095000000000        2.8902173602288183E-005   5.7697385421281154E-017
 chl          14   1.1085616468843244E-005   2.3658639235715458E-004   4.6856526101924839E-002
 chl2c          15   5.5524409480854998E-002   2.0954299823745293E-002  0.25607262500000000        6.4257144370235064E-005   2.2778216974207753E-006
 chl          15   1.3394548103085824E-005   2.4123711045867689E-004   5.5524409480854998E-002
 chl2c          16   3.7823443882273475E-002   3.7823443882273475E-002  0.71433214999999994        6.4257144370235064E-005   1.1133778166515918E-016
 chl          16   8.9846721986505500E-006   2.3754241487410803E-004   3.7823443882273475E-002
 chl2c          17   3.7542254757581245E-002   3.7542254757581245E-002  0.62580860000000005        6.4257144370235064E-005   1.1128214543881518E-016
 chl          17   8.9178778549348145E-006   2.3754241487410787E-004   3.7542254757581245E-002
 chl2c          18   2.5694475239060960E-002   2.5694475239060960E-002  0.47925950000000000        3.4053605740908666E-005   1.0278644144801963E-016
 chl          18   6.0789632003226493E-006   2.3658639235727056E-004   2.5694475239060960E-002
 chl2c          19   4.4657203451855552E-002   3.7570220750293731E-002  0.63367130000000005        6.4257144370235064E-005   1.5435521166699926E-006
 chl          19   1.0758310866853312E-005   2.4090874562827767E-004   4.4657203451855552E-002
 chl2c          20   3.7020645196759419E-002   3.7020645196759419E-002  0.50678202500000002        6.4257144370235064E-005   9.7952487658064111E-017
 chl          20   8.7939734586875520E-006   2.3754241483228735E-004   3.7020645196759419E-002
 chl2c          21   3.9523148773526820E-002   3.7838475073783531E-002  0.71973185000000006        6.4257144370235064E-005   1.3436046600205504E-006
 chl          21   9.5047942891686061E-006   2.4048676747979794E-004   3.9523148773526820E-002
 chl2c          22   6.4676301351551432E-002   3.7613353106285476E-002  0.64616892500000001        6.4257144370235064E-005   2.3090772372098896E-006
 chl          22   1.5686186352830040E-005   2.4253375695630690E-004   6.4676301351551432E-002
 chl2c          23   3.2286562315070731E-002   3.2286562315070731E-002  0.41564179999999995        4.1594072640852150E-005   2.0831394396032270E-017
 chl          23   7.6385612997339823E-006   2.3658639235705971E-004   3.2286562315070731E-002
 chl2c          24   3.7348402796863071E-002   3.7348402796863071E-002  0.57597492500000003        6.4257144370235064E-005   7.9540314741978733E-017
 chl          24   8.8718297904940398E-006   2.3754241483223997E-004   3.7348402796863071E-002
 chl2c          25   4.5426679235459781E-002   4.5426679235459781E-002  0.31406487500000002        2.8902173602288183E-005   1.6010104223094485E-017
 chl          25   1.0747334157078234E-005   2.3658639235704757E-004   4.5426679235459781E-002
 chl2c          26   4.7955660680174553E-002   4.7955660680174553E-002  0.49427735000000000        2.8902173602288183E-005   1.4568843015079333E-017
 chl          26   1.1345656753421041E-005   2.3658639235704394E-004   4.7955660680174553E-002
 chl2c          27   4.5333133499525620E-002   4.5333133499525620E-002  0.30964730000000001        2.8902173602288183E-005   5.7227144108389473E-017
 chl          27   1.0725202508897982E-005   2.3658639235715336E-004   4.5333133499525620E-002
 chl2c          28   3.1209236063453518E-002   3.1209236063453518E-002  0.28776342500000002        4.1594072640852150E-005   5.6892156473228671E-017
 chl          28   7.3836805684752091E-006   2.3658639235715255E-004   3.1209236063453518E-002
 chl2c          29   5.5839706597621906E-002   3.7743217595736761E-002  0.68676297499999994        6.4257144370235064E-005   1.9528319961721567E-006
 chl          29   1.3501495723832312E-005   2.4179023398391766E-004   5.5839706597621906E-002
 chl2c          30   2.5380056985171612E-002   2.5380056985171612E-002  0.38930277499999999        3.4053605740908666E-005   1.1267638927549651E-016
 chl          30   6.0045761199443388E-006   2.3658639235729585E-004   2.5380056985171612E-002
 chl2c          31   4.4906190224891770E-002   3.7576959810037038E-002  0.63559385000000002        6.4257144370235064E-005   1.5524564487831734E-006
 chl          31   1.0819229076171383E-005   2.4092956944217058E-004   4.4906190224891770E-002
 chl2c          32   5.8467882312154086E-002   2.0893126428578448E-002  0.24722667500000001        6.4257144370235064E-005   2.4603501941500503E-006
 chl          32   1.4123447021688322E-005   2.4155906564709618E-004   5.8467882312154086E-002
 chl2c          33   4.7792322191568495E-002   3.7458922634011876E-002  0.60343137499999999        6.4257144370235064E-005   1.6675723430625274E-006
 chl          33   1.1526022838037972E-005   2.4116892231847625E-004   4.7792322191568495E-002
 chl2c          34   3.9742978835833692E-002   2.5350269098008315E-002  0.38241020000000003        3.4053605740908666E-005   7.5517991077138079E-007
 chl          34   9.4669168579236153E-006   2.3820350500219437E-004   3.9742978835833692E-002
 chl2c          35   2.5740370148566064E-002   2.5740370148566064E-002  0.49574644999999995        3.4053605740908666E-005   8.1368802018410904E-017
 chl          35   6.0898213113886115E-006   2.3658639235721562E-004   2.5740370148566064E-002
 chl2c          36   3.7770393924465726E-002   3.7770393924465726E-002  0.69587337500000002        6.4257144370235064E-005   8.4753752272163682E-017
 chl          36   8.9720705835613446E-006   2.3754241487403967E-004   3.7770393924465726E-002
 chl2c          37   2.1353674699533250E-002   2.1353674699533250E-002  0.33194060000000003        6.4257144370235064E-005   7.4503650349383597E-017
 chl          37   5.0519888607317466E-006   2.3658639235719803E-004   2.1353674699533250E-002
 chl2c          38   2.1543295686358745E-002   2.1543295686358745E-002  0.38455722500000000        6.4257144370235064E-005   1.1501349587275410E-016
 chl          38   5.0968506059222373E-006   2.3658639235730181E-004   2.1543295686358745E-002
 chl2c          39   2.5670077108751441E-002   2.5670077108751441E-002  0.47091117500000002        3.4053605740908666E-005   9.2588542840972229E-017
 chl          39   6.0731909346917854E-006   2.3658639235724435E-004   2.5670077108751441E-002
 chl2c          40   3.7687445774703773E-002   3.7687445774703773E-002  0.66875547499999999        6.4257144370235064E-005   1.1155259382324022E-016
 chl          40   8.9523668797601535E-006   2.3754241487410857E-004   3.7687445774703773E-002
 chl2c          41   2.5582381488167241E-002   2.5582381488167241E-002  0.44304987499999998        3.4053605740908666E-005   6.7090631060237716E-017
 chl          41   6.0524433441905684E-006   2.3658639235717903E-004   2.5582381488167241E-002
 chl2c          42   3.7949995630725070E-002   3.7949995630725070E-002  0.76234377499999995        6.4257144370235064E-005   9.4104728159083477E-017
 chl          42   9.0147336049968102E-006   2.3754241483227743E-004   3.7949995630725070E-002
 chl2c          43   2.1185090152268007E-002   2.1185090152268007E-002  0.29539925000000000        6.4257144370235064E-005   3.2728325662947741E-007
 chl          43   5.0296116739126242E-006   2.3741280484351255E-004   2.1185090152268007E-002
 chl2c          44   3.7536352708156646E-002   3.7536352708156646E-002  0.62417262500000004        6.4257144370235064E-005   8.0399689790625226E-017
 chl          44   8.9164758662903023E-006   2.3754241483224216E-004   3.7536352708156646E-002
 chl2c          45   4.6544927192009838E-002   4.6544927192009838E-002  0.37662252499999999        2.8902173602288183E-005   1.9237363923485125E-017
 chl          45   1.1011896421548258E-005   2.3658639267220988E-004   4.6544927192009838E-002
 chl2c          46   5.2921487454415168E-002   3.7083195475449568E-002  0.51876034999999998        6.4257144370235064E-005   1.8934529848393477E-006
 chl          46   1.2787300445976103E-005   2.4162775955590183E-004   5.2921487454415168E-002
 chl2c          47   3.7519784612651236E-002   3.7519784612651236E-002  0.61962282499999999        6.4257144370235064E-005   1.0266353164094536E-016
 chl          47   8.9125402408769265E-006   2.3754241483229946E-004   3.7519784612651236E-002
 chl2c          48   3.7823212136301673E-002   3.7823212136301673E-002  0.71424949999999998        6.4257144370235064E-005   9.8735414480156517E-017
 chl          48   8.9846171475710543E-006   2.3754241483228938E-004   3.7823212136301673E-002
 chl2c          49   3.7152990741888416E-002   3.7152990741888416E-002  0.53276120000000005        6.4257144370235064E-005   9.1888868111851409E-017
 chl          49   8.8254111390692086E-006   2.3754241483227173E-004   3.7152990741888416E-002
 chl2c          50   4.9978288345534250E-002   2.1533072915600981E-002  0.38132569999999999        6.4257144370235064E-005   1.8479290712187467E-006
 chl          50   1.2020351265318121E-005   2.4051146334210514E-004   4.9978288345534250E-002
 chl2c          51   2.0700971146093840E-002   2.0700971146093840E-002  0.22275920000000002        6.4257144370235064E-005   1.2223699610605287E-016
 chl          51   4.8975680817473237E-006   2.3658639235732030E-004   2.0700971146093840E-002
 chl2c          52   3.7581825176985564E-002   3.7581825176985564E-002  0.63698869999999996        6.4257144370235064E-005   1.0925587028364406E-016
 chl          52   8.9272775079175000E-006   2.3754241487410264E-004   3.7581825176985564E-002
 chl2c          53   3.7925801262726190E-002   3.7925801262726190E-002  0.75269794999999995        6.4257144370235064E-005   9.7847400186951409E-017
 chl          53   9.0089864179821599E-006   2.3754241487407334E-004   3.7925801262726190E-002
 chl2c          54   3.7082433371327092E-002   3.7082433371327092E-002  0.51861124999999997        6.4257144370235064E-005   8.0270579059879209E-017
 chl          54   8.8086507708807491E-006   2.3754241483224184E-004   3.7082433371327092E-002
 chl2c          55   6.3452860735326216E-002   3.7357235588660491E-002  0.57808280000000001        6.4257144370235064E-005   2.2900113347821866E-006
 chl          55   1.5385612504266777E-005   2.4247311036838909E-004   6.3452860735326216E-002
 chl2c          56   3.7507394187257688E-002   3.7507394187257688E-002  0.61626080000000005        6.4257144370235064E-005   1.0954445550977437E-016
 chl          56   8.9095969908760986E-006   2.3754241487410337E-004   3.7507394187257688E-002
 chl2c          57   3.7727617852646313E-002   3.7727617852646313E-002  0.68163462500000005        6.4257144370235064E-005   1.1923517408349704E-006
 chl          57   9.0630577304209884E-006   2.4022342904921263E-004   3.7727617852646313E-002
 chl2c          58   5.3087599602796326E-002   3.7765358178394853E-002  0.69416802499999997        6.4257144370235064E-005   1.8468711754329444E-006
 chl          58   1.2824082561243743E-005   2.4156455852579649E-004   5.3087599602796326E-002
 chl2c          59   3.7173699120809672E-002   3.7173699120809672E-002  0.53705127500000005        6.4257144370235064E-005   2.0311772629855369E-007
 chl          59   8.8497103186206758E-006   2.3806375281244604E-004   3.7173699120809672E-002
 chl2c          60   3.7607757740906807E-002   3.7607757740906807E-002  0.64452155000000000        6.4257144370235064E-005   1.2255091460039502E-006
 chl          60   9.0360244733067205E-006   2.4027022657290820E-004   3.7607757740906807E-002
 chl2c          61   3.7805373434125003E-002   3.7805373434125003E-002  0.70794139999999994        6.4257144370235064E-005   9.5763848337012136E-017
 chl          61   8.9803796991782443E-006   2.3754241483228171E-004   3.7805373434125003E-002
 chl2c          62   3.7956103087269030E-002   3.7956103087269030E-002  0.76481592499999995        6.4257144370235064E-005   7.8162136044259881E-017
 chl          62   9.0161843849711888E-006   2.3754241483223642E-004   3.7956103087269030E-002
 chl2c          63   4.8070015338643982E-002   3.7855601011927406E-002  0.72597904999999996        6.4257144370235064E-005   1.6539346761554695E-006
 chl          63   1.1592405478085968E-005   2.4115668356707831E-004   4.8070015338643982E-002
 chl2c          64   2.5708982294816416E-002   2.5708982294816416E-002  0.48435739999999999        3.4053605740908666E-005   6.5276393402343298E-017
 chl          64   6.0823953723050862E-006   2.3658639235717439E-004   2.5708982294816416E-002
 chl2c          65   3.7953597170552002E-002   3.7953597170552002E-002  0.76379975000000000        6.4257144370235064E-005   1.4108043109413177E-007
 chl          65   9.0293268539664502E-006   2.3790437605667212E-004   3.7953597170552002E-002
 chl2c          66   3.1840477731474713E-002   3.1840477731474713E-002  0.35213202499999996        4.1594072640852150E-005   1.5917828655198053E-017
 chl          66   7.5330237574145043E-006   2.3658639235704733E-004   3.1840477731474713E-002
 chl2c          67   3.7937587124568600E-002   3.7937587124568600E-002  0.75736760000000003        6.4257144370235064E-005   9.1366560488683390E-017
 chl          67   9.0117860584796738E-006   2.3754241483227038E-004   3.7937587124568600E-002
 chl2c          68   5.1188037562043473E-002   3.7855407263856986E-002  0.72590779999999999        6.4257144370235064E-005   1.7693670600862071E-006
 chl          68   1.2356950841233061E-005   2.4140309786745731E-004   5.1188037562043473E-002
 chl2c          69   4.5277636143817024E-002   2.1732330561541505E-002  0.45524217500000003        6.4257144370235064E-005   1.6153675993034323E-006
 chl          69   1.0869349897015676E-005   2.4006001246379028E-004   4.5277636143817024E-002
 chl2c          70   3.2658010878182209E-002   3.2658010878182209E-002  0.48694062500000002        4.1594072640852150E-005   6.9388669511276224E-017
 chl          70   7.7264409752308134E-006   2.3658639235718442E-004   3.2658010878182209E-002
 chl2c          71   4.3481058864416305E-002   4.3481058864416305E-002  0.23986107500000001        2.8902173602288183E-005   1.7740756157083419E-017
 chl          71   1.0287026852596869E-005   2.3658639235705196E-004   4.3481058864416305E-002
 chl2c          72   3.7549776402781669E-002   3.7549776402781669E-002  0.62790522500000001        6.4257144370235064E-005   1.0988989455686564E-016
 chl          72   8.9196645646994139E-006   2.3754241487410427E-004   3.7549776402781669E-002
 chl2c          73   3.1852614277819484E-002   3.1852614277819484E-002  0.35362212500000001        4.1594072640852150E-005   1.9845583929756087E-017
 chl          73   7.5358950991302036E-006   2.3658639235705722E-004   3.1852614277819484E-002
 chl2c          74   4.2611413854226989E-002   3.7616827685877569E-002  0.64719590000000005        6.4257144370235064E-005   1.4655347766852604E-006
 chl          74   1.0258383028993111E-005   2.4074261098415759E-004   4.2611413854226989E-002
 chl2c          75   3.7826830779512356E-002   3.7826830779512356E-002  0.71554212500000003        6.4257144370235064E-005   8.6652528694338518E-017
 chl          75   8.9854767303972016E-006   2.3754241487404453E-004   3.7826830779512356E-002
 chl2c          76   5.7031588635770125E-002   3.7257729557919804E-002  0.55513977500000000        6.4257144370235064E-005   2.0421402277579812E-006
 chl          76   1.3798714999987455E-005   2.4194863460866181E-004   5.7031588635770125E-002
 chl2c          77   3.7138172437479272E-002   3.7138172437479272E-002  0.52973029999999999        6.4257144370235064E-005   8.0550787583585480E-007
 chl          77   8.8950735212178685E-006   2.3951295762311388E-004   3.7138172437479272E-002
 chl2c          78   4.7515248899399322E-002   4.7515248899399322E-002  0.45117492500000000        2.8902173602288183E-005   6.3834179097398261E-007
 chl          78   1.1310289348203556E-005   2.3803493847101659E-004   4.7515248899399322E-002
 prod   7.4375053101858779E-008   46.575030137868822        10.000000000000000     
 chl2c           1   3.7477407714772232E-002   3.7477407714772232E-002  0.60826437499999997        5.5407575870535746E-005   3.6736214591756048E-007
 chl           1   6.2825534046956882E-006   1.6763575145084899E-004   3.7477407714772232E-002
 chl2c           2   3.2640259920490348E-002   3.2640259920490348E-002  0.48302390000000001        3.6119248931479038E-005   6.5756602419644365E-008
 chl           2   5.4393855997010171E-006   1.6664651608017288E-004   3.2640259920490348E-002
 chl2c           3   3.7922212503796585E-002   3.7922212503796585E-002  0.75128689999999998        5.5407575870535746E-005   9.6268137396805222E-017
 chl           3   6.3320538519548843E-006   1.6697480009429699E-004   3.7922212503796585E-002
 chl2c           4   6.8872794812043836E-002   3.7976509103863923E-002  0.77318742499999993        5.5407575870535746E-005   2.0946184916388510E-006
 chl           4   1.1719913140905638E-005   1.7016752656676229E-004   6.8872794812043836E-002
 chl2c           5   6.5039437494616145E-002   2.5710500362372445E-002  0.48489679999999996        2.9478519729304442E-005   1.1071335133072526E-006
 chl           5   1.0938530249040086E-005   1.6818303894380329E-004   6.5039437494616145E-002
 chl2c           6   3.1261039902252048E-002   3.1261039902252048E-002  0.29222855000000003        3.6119248931479038E-005   5.6566430831245405E-017
 chl           6   5.2060279444194714E-006   1.6653406158905254E-004   3.1261039902252048E-002
 chl2c           7   4.3064391842467263E-002   4.3064391842467263E-002  0.22770740000000000        2.5238670050761571E-005   9.0325399863176338E-008
 chl           7   7.1783361035140073E-006   1.6668843553562518E-004   4.3064391842467263E-002
 chl2c           8   4.7969800906495587E-002   4.7969800906495587E-002  0.49578364999999996        2.5238670050761571E-005   3.9855123734373341E-008
 chl           8   7.9918681893487059E-006   1.6660207126827011E-004   4.7969800906495587E-002
 chl2c           9   7.8648002302359299E-002   2.4803669054600401E-002  0.28700202499999999        2.9478519729304442E-005   1.5967849948924804E-006
 chl           9   1.3271820980268040E-005   1.6874962607753242E-004   7.8648002302359299E-002
 chl2c          10   8.6488290345915611E-002   2.5387016219684602E-002  0.39094662499999999        2.9478519729304442E-005   1.6369016592039509E-006
 chl          10   1.4605769194307490E-005   1.6887568404798793E-004   8.6488290345915611E-002
 chl2c          11   2.1820572217820047E-002   2.1820572217820047E-002  0.49737575000000001        5.5407575870535746E-005   8.8529495564114616E-017
 chl          11   3.6338685176320760E-006   1.6653406158911044E-004   2.1820572217820047E-002
 chl2c          12   4.5290941298723353E-002   4.5290941298723353E-002  0.30768942500000002        2.5238670050761571E-005   4.4750725510539535E-018
 chl          12   7.5424844076634996E-006   1.6653406158895852E-004   4.5290941298723353E-002
 chl2c          13   3.7935816987997487E-002   3.7935816987997487E-002  0.75666275000000005        5.5407575870535746E-005   8.0096001619854406E-017
 chl          13   6.3343254568691283E-006   1.6697480006488974E-004   3.7935816987997487E-002
 chl2c          14   4.6856526101924839E-002   4.6856526101924839E-002  0.39804095000000000        2.5238670050761571E-005   4.3953651720295687E-017
 chl          14   7.8032076037059374E-006   1.6653406158902988E-004   4.6856526101924839E-002
 chl2c          15   5.6026024349196429E-002   2.0954299823745293E-002  0.25607262500000000        5.5407575870535746E-005   1.9868310449380027E-006
 chl          15   9.4898266044964567E-006   1.6938247385444845E-004   5.6026024349196429E-002
 chl2c          16   3.7823443882273475E-002   3.7823443882273475E-002  0.71433214999999994        5.5407575870535746E-005   1.0020581513509753E-016
 chl          16   6.3155619811207422E-006   1.6697480009430409E-004   3.7823443882273475E-002
 chl2c          17   3.7542254757581245E-002   3.7542254757581245E-002  0.62580860000000005        5.5407575870535746E-005   1.0015582201889175E-016
 chl          17   6.2686104832365615E-006   1.6697480009430401E-004   3.7542254757581245E-002
 chl2c          18   2.5694475239060960E-002   2.5694475239060960E-002  0.47925950000000000        2.9478519729304442E-005   9.2396029529899428E-017
 chl          18   4.2790053219618306E-006   1.6653406158911743E-004   2.5694475239060960E-002
 chl2c          19   4.7044087776057515E-002   3.7570220750293731E-002  0.63367130000000005        5.5407575870535746E-005   1.4078164594951712E-006
 chl          19   7.9564808223879844E-006   1.6912817738677321E-004   4.7044087776057515E-002
 chl2c          20   3.7020645196759419E-002   3.7020645196759419E-002  0.50678202500000002        5.5407575870535746E-005   8.8175102985205828E-017
 chl          20   6.1815148300026637E-006   1.6697480006490429E-004   3.7020645196759419E-002
 chl2c          21   4.3422871312209552E-002   3.7838475073783531E-002  0.71973185000000006        5.5407575870535746E-005   1.2802160284097936E-006
 chl          21   7.3359297545131957E-006   1.6894160917568099E-004   4.3422871312209552E-002
 chl2c          22   6.6488932704005008E-002   3.7613353106285476E-002  0.64616892500000001        5.5407575870535746E-005   2.0532710000250024E-006
 chl          22   1.1308928829341523E-005   1.7008738701952908E-004   6.6488932704005008E-002
 chl2c          23   3.2286562315070731E-002   3.2286562315070731E-002  0.41564179999999995        3.6119248931479038E-005   6.2026109896854407E-018
 chl          23   5.3768123570738322E-006   1.6653406158896150E-004   3.2286562315070731E-002
 chl2c          24   3.7348402796863071E-002   3.7348402796863071E-002  0.57597492500000003        5.5407575870535746E-005   7.1616992774083810E-017
 chl          24   6.2362420897486079E-006   1.6697480006487442E-004   3.7348402796863071E-002
 chl2c          25   4.5426679235459781E-002   4.5426679235459781E-002  0.31406487500000002        2.5238670050761571E-005   4.7368155227921616E-018
 chl          25   7.5650893975799442E-006   1.6653406158895900E-004   4.5426679235459781E-002
 chl2c          26   4.7955660680174553E-002   4.7955660680174553E-002  0.49427735000000000        2.5238670050761571E-005   4.3022391754507284E-018
 chl          26   7.9862509492513705E-006   1.6653406158895822E-004   4.7955660680174553E-002
 chl2c          27   4.5333133499525620E-002   4.5333133499525620E-002  0.30964730000000001        2.5238670050761571E-005   4.3595792191228386E-017
 chl          27   7.5495108462336837E-006   1.6653406158902923E-004   4.5333133499525620E-002
 chl2c          28   3.1209236063453518E-002   3.1209236063453518E-002  0.28776342500000002        3.6119248931479038E-005   4.3340858352178301E-017
 chl          28   5.1974008407377065E-006   1.6653406158902877E-004   3.1209236063453518E-002
 chl2c          29   5.6685697453818226E-002   3.7743217595736761E-002  0.68676297499999994        5.5407575870535746E-005   1.7116923275445338E-006
 chl          29   9.6132056317249140E-006   1.6958785131922883E-004   5.6685697453818226E-002
 chl2c          30   2.5380056985171612E-002   2.5380056985171612E-002  0.38930277499999999        2.9478519729304442E-005   1.0124679874120054E-016
 chl          30   4.2266439731042863E-006   1.6653406158913345E-004   2.5380056985171612E-002
 chl2c          31   4.3130434939319472E-002   3.7576959810037038E-002  0.63559385000000002        5.5407575870535746E-005   1.2818616082209306E-006
 chl          31   7.2864839167798862E-006   1.6894065471473438E-004   4.3130434939319472E-002
 chl2c          32   5.9769902390044032E-002   2.0893126428578448E-002  0.24722667500000001        5.5407575870535746E-005   2.1838152433249490E-006
 chl          32   1.0138609483268047E-005   1.6962733880851796E-004   5.9769902390044032E-002
 chl2c          33   4.9989949245351696E-002   3.7458922634011876E-002  0.60343137499999999        5.5407575870535746E-005   1.5100039165913857E-006
 chl          33   8.4621903975442659E-006   1.6927783535069542E-004   4.9989949245351696E-002
 chl2c          34   3.3840770584923137E-002   2.5350269098008315E-002  0.38241020000000003        2.9478519729304442E-005   5.4721260375548870E-007
 chl          34   5.6637053905571825E-006   1.6736336947009408E-004   3.3840770584923137E-002
 chl2c          35   2.5740370148566064E-002   2.5740370148566064E-002  0.49574644999999995        2.9478519729304442E-005   7.3196941697301310E-017
 chl          35   4.2866483876470909E-006   1.6653406158908288E-004   2.5740370148566064E-002
 chl2c          36   3.7770393924465726E-002   3.7770393924465726E-002  0.69587337500000002        5.5407575870535746E-005   7.6306453321137087E-017
 chl          36   6.3067039750191521E-006   1.6697480009426094E-004   3.7770393924465726E-002
 chl2c          37   2.1353674699533250E-002   2.1353674699533250E-002  0.33194060000000003        5.5407575870535746E-005   6.7034880847284065E-017
 chl          37   3.5561141775650737E-006   1.6653406158907176E-004   2.1353674699533250E-002
 chl2c          38   2.1543295686358745E-002   2.1543295686358745E-002  0.38455722500000000        5.5407575870535746E-005   1.0333681474224785E-016
 chl          38   3.5876925306650621E-006   1.6653406158913725E-004   2.1543295686358745E-002
 chl2c          39   2.5670077108751441E-002   2.5670077108751441E-002  0.47091117500000002        2.9478519729304442E-005   8.3259546375663019E-017
 chl          39   4.2749422022257842E-006   1.6653406158910101E-004   2.5670077108751441E-002
 chl2c          40   3.7687445774703773E-002   3.7687445774703773E-002  0.66875547499999999        5.5407575870535746E-005   1.0039883813865070E-016
 chl          40   6.2928537242961013E-006   1.6697480009430444E-004   3.7687445774703773E-002
 chl2c          41   2.5582381488167241E-002   2.5582381488167241E-002  0.44304987499999998        2.9478519729304442E-005   6.0377261961118214E-017
 chl          41   4.2603378943452660E-006   1.6653406158905978E-004   2.5582381488167241E-002
 chl2c          42   3.7949995630725070E-002   3.7949995630725070E-002  0.76234377499999995        5.5407575870535746E-005   8.4715644606971298E-017
 chl          42   6.3366929329040730E-006   1.6697480006489806E-004   3.7949995630725070E-002
 chl2c          43   2.1185090152268007E-002   2.1185090152268007E-002  0.29539925000000000        5.5407575870535746E-005   4.4737973987528719E-007
 chl          43   3.5439139111221182E-006   1.6728340005401008E-004   2.1185090152268007E-002
 chl2c          44   3.7536352708156646E-002   3.7536352708156646E-002  0.62417262500000004        5.5407575870535746E-005   7.2390047982924223E-017
 chl          44   6.2676249886091153E-006   1.6697480006487580E-004   3.7536352708156646E-002
 chl2c          45   4.6544927192009838E-002   4.6544927192009838E-002  0.37662252499999999        2.5238670050761571E-005   5.7159182590666092E-018
 chl          45   7.7513157716557707E-006   1.6653406158913069E-004   4.6544927192009838E-002
 chl2c          46   5.2596256740148971E-002   3.7083195475449568E-002  0.51876034999999998        5.5407575870535746E-005   1.6215186453951604E-006
 chl          46   8.9114807266405525E-006   1.6943184323301924E-004   5.2596256740148971E-002
 chl2c          47   3.7519784612651236E-002   3.7519784612651236E-002  0.61962282499999999        5.5407575870535746E-005   9.2410080012842007E-017
 chl          47   6.2648585341760012E-006   1.6697480006491199E-004   3.7519784612651236E-002
 chl2c          48   3.7823212136301673E-002   3.7823212136301673E-002  0.71424949999999998        5.5407575870535746E-005   8.8878962351124546E-017
 chl          48   6.3155232842714826E-006   1.6697480006490559E-004   3.7823212136301673E-002
 chl2c          49   3.7152990741888416E-002   3.7152990741888416E-002  0.53276120000000005        5.5407575870535746E-005   8.2723191728141718E-017
 chl          49   6.2036132009396939E-006   1.6697480006489448E-004   3.7152990741888416E-002
 chl2c          50   5.1484354848048433E-002   2.1533072915600981E-002  0.38132569999999999        5.5407575870535746E-005   1.6489421227832801E-006
 chl          50   8.7004546313405812E-006   1.6899220466138135E-004   5.1484354848048433E-002
 chl2c          51   2.0700971146093840E-002   2.0700971146093840E-002  0.22275920000000002        5.5407575870535746E-005   1.0979269894209075E-016
 chl          51   3.4474168037987850E-006   1.6653406158914885E-004   2.0700971146093840E-002
 chl2c          52   3.7581825176985564E-002   3.7581825176985564E-002  0.63698869999999996        5.5407575870535746E-005   9.8334994507478996E-017
 chl          52   6.2752177461061233E-006   1.6697480009430075E-004   3.7581825176985564E-002
 chl2c          53   3.7925801262726190E-002   3.7925801262726190E-002  0.75269794999999995        5.5407575870535746E-005   8.8080626758979051E-017
 chl          53   6.3326530842591802E-006   1.6697480009428219E-004   3.7925801262726190E-002
 chl2c          54   3.7082433371327092E-002   3.7082433371327092E-002  0.51861124999999997        5.5407575870535746E-005   7.2273907051494489E-017
 chl          54   6.1918318980964127E-006   1.6697480006487561E-004   3.7082433371327092E-002
 chl2c          55   6.5208471667059412E-002   3.7357235588660491E-002  0.57808280000000001        5.5407575870535746E-005   2.0362085757398998E-006
 chl          55   1.1088639119367497E-005   1.7004905706092499E-004   6.5208471667059412E-002
 chl2c          56   3.7507394187257688E-002   3.7507394187257688E-002  0.61626080000000005        5.5407575870535746E-005   9.8594328415395255E-017
 chl          56   6.2627896464755068E-006   1.6697480009430119E-004   3.7507394187257688E-002
 chl2c          57   3.7727617852646313E-002   3.7727617852646313E-002  0.68163462500000005        5.5407575870535746E-005   9.3159215183482891E-007
 chl          57   6.3566500062911843E-006   1.6848797692763188E-004   3.7727617852646313E-002
 chl2c          58   5.6709821650743467E-002   3.7765358178394853E-002  0.69416802499999997        5.5407575870535746E-005   1.7108436666524883E-006
 chl          58   9.6172120242708189E-006   1.6958635637226937E-004   5.6709821650743467E-002
 chl2c          59   3.7173699120809672E-002   3.7173699120809672E-002  0.53705127500000005        5.5407575870535746E-005   2.8183213785425358E-007
 chl          59   6.2259534073796946E-006   1.6748275137069783E-004   3.7173699120809672E-002
 chl2c          60   3.9182535699823530E-002   3.7607757740906807E-002  0.64452155000000000        5.5407575870535746E-005   1.1557674779502984E-006
 chl          60   6.6120434144403874E-006   1.6874975793029564E-004   3.9182535699823530E-002
 chl2c          61   3.7805373434125003E-002   3.7805373434125003E-002  0.70794139999999994        5.5407575870535746E-005   8.6207389836675078E-017
 chl          61   6.3125446705419323E-006   1.6697480006490074E-004   3.7805373434125003E-002
 chl2c          62   3.7956103087269030E-002   3.7956103087269030E-002  0.76481592499999995        5.5407575870535746E-005   7.0377203347059471E-017
 chl          62   6.3377127242384215E-006   1.6697480006487212E-004   3.7956103087269030E-002
 chl2c          63   4.9859907044975151E-002   3.7855601011927406E-002  0.72597904999999996        5.5407575870535746E-005   1.4831718514183774E-006
 chl          63   8.4387339442499760E-006   1.6924889042889673E-004   4.9859907044975151E-002
 chl2c          64   2.5708982294816416E-002   2.5708982294816416E-002  0.48435739999999999        2.9478519729304442E-005   5.8747337313283136E-017
 chl          64   4.2814212408769283E-006   1.6653406158905683E-004   2.5708982294816416E-002
 chl2c          65   3.7953597170552002E-002   3.7953597170552002E-002  0.76379975000000000        5.5407575870535746E-005   2.0237673384459124E-007
 chl          65   6.3511424167549145E-006   1.6733966976080814E-004   3.7953597170552002E-002
 chl2c          66   3.1840477731474713E-002   3.1840477731474713E-002  0.35213202499999996        3.6119248931479038E-005   4.7089427475902633E-018
 chl          66   5.3025240795552863E-006   1.6653406158895895E-004   3.1840477731474713E-002
 chl2c          67   3.7937587124568600E-002   3.7937587124568600E-002  0.75736760000000003        5.5407575870535746E-005   8.2253522321739425E-017
 chl          67   6.3346210250693244E-006   1.6697480006489361E-004   3.7937587124568600E-002
 chl2c          68   5.5405468627304305E-002   3.7855407263856986E-002  0.72590779999999999        5.5407575870535746E-005   1.6617778175737619E-006
 chl          68   9.3921108445164599E-006   1.6951595351885436E-004   5.5405468627304305E-002
 chl2c          69   4.5537389398581804E-002   2.1732330561541505E-002  0.45524217500000003        5.5407575870535746E-005   1.4017763753110257E-006
 chl          69   7.6800095009904986E-006   1.6865282798204681E-004   4.5537389398581804E-002
 chl2c          70   3.2658010878182209E-002   3.2658010878182209E-002  0.48694062500000002        3.6119248931479038E-005   5.2848692596970535E-017
 chl          70   5.4386711949629261E-006   1.6653406158904588E-004   3.2658010878182209E-002
 chl2c          71   4.3481058864416305E-002   4.3481058864416305E-002  0.23986107500000001        2.5238670050761571E-005   5.2608333349437705E-018
 chl          71   7.2410773348798980E-006   1.6653406158895995E-004   4.3481058864416305E-002
 chl2c          72   3.7549776402781669E-002   3.7549776402781669E-002  0.62790522500000001        5.5407575870535746E-005   9.8904749526319149E-017
 chl          72   6.2698664084401971E-006   1.6697480009430173E-004   3.7549776402781669E-002
 chl2c          73   3.1852614277819484E-002   3.1852614277819484E-002  0.35362212500000001        3.6119248931479038E-005   5.9013791644784004E-018
 chl          73   5.3045452279118077E-006   1.6653406158896098E-004   3.1852614277819484E-002
 chl2c          74   4.6416973351733205E-002   3.7616827685877569E-002  0.64719590000000005        5.5407575870535746E-005   1.3852783264245200E-006
 chl          74   7.8488767197641612E-006   1.6909497007243116E-004   4.6416973351733205E-002
 chl2c          75   3.7826830779512356E-002   3.7826830779512356E-002  0.71554212500000003        5.5407575870535746E-005   7.8014202718766430E-017
 chl          75   6.3161275076086299E-006   1.6697480009426405E-004   3.7826830779512356E-002
 chl2c          76   5.8583954554458667E-002   3.7257729557919804E-002  0.55513977500000000        5.5407575870535746E-005   1.8144796697577790E-006
 chl          76   9.9429050587995716E-006   1.6972061948390343E-004   5.8583954554458667E-002
 chl2c          77   3.7138172437479272E-002   3.7138172437479272E-002  0.52973029999999999        5.5407575870535746E-005   8.0297746296450208E-007
 chl          77   6.2510472754265688E-006   1.6831865611992549E-004   3.7138172437479272E-002
 chl2c          78   4.7515248899399322E-002   4.7515248899399322E-002  0.45117492500000000        2.5238670050761571E-005   3.8215657647652448E-007
 chl          78   7.9442331490549792E-006   1.6719333967658978E-004   4.7515248899399322E-002
 prod   2.1550914316835388E-008   40.010088372905770        10.000000000000000     
 chl2c           1   5.0682367763563892E-002   3.7477407714772232E-002  0.60826437499999997        4.7835745988382461E-005   1.3224007342988827E-006
 chl           1   6.3753570742459707E-006   1.2579043473239789E-004   5.0682367763563892E-002
 chl2c           2   3.2640259920490348E-002   3.2640259920490348E-002  0.48302390000000001        3.1381267273895944E-005   4.2492256829791615E-008
 chl           2   4.0499170159275125E-006   1.2407735188974781E-004   3.2640259920490348E-002
 chl2c           3   3.7922212503796585E-002   3.7922212503796585E-002  0.75128689999999998        4.7835745988382461E-005   2.3643976116405000E-016
 chl           3   4.7133835570307083E-006   1.2429083763398107E-004   3.7922212503796585E-002
 chl2c           4  0.16594718904463165        3.7976509103863923E-002  0.77318742499999993        4.7835745988382461E-005   5.0537842492180319E-006
 chl           4   2.1531890311816154E-005   1.2975146150878838E-004  0.16594718904463165     
 chl2c           5  0.12567189353506422        2.5710500362372445E-002  0.48489679999999996        2.5564925620830672E-005   2.1683809057074194E-006
 chl           5   1.5871141381320606E-005   1.2629030195118637E-004  0.12567189353506422     
 chl2c           6   3.1261039902252048E-002   3.1261039902252048E-002  0.29222855000000003        3.1381267273895944E-005   4.5851441865357471E-017
 chl           6   3.8771094186327918E-006   1.2402368669615129E-004   3.1261039902252048E-002
 chl2c           7   4.3064391842467263E-002   4.3064391842467263E-002  0.22770740000000000        2.2046788195887842E-005   6.9789523114354009E-008
 chl           7   5.3448010200304465E-006   1.2411184255386968E-004   4.3064391842467263E-002
 chl2c           8   4.7969800906495587E-002   4.7969800906495587E-002  0.49578364999999996        2.2046788195887842E-005   4.0575792442136017E-008
 chl           8   5.9518501922277005E-006   1.2407494047826580E-004   4.7969800906495587E-002
 chl2c           9  0.14476285642478706        2.4803669054600401E-002  0.28700202499999999        2.5564925620830672E-005   3.7336829597239303E-006
 chl           9   1.8415566259094237E-005   1.2721195694741089E-004  0.14476285642478706     
 chl2c          10  0.15712429863885977        2.5387016219684602E-002  0.39094662499999999        2.5564925620830672E-005   3.3580671872714827E-006
 chl          10   1.9986628099287853E-005   1.2720265593818718E-004  0.15712429863885977     
 chl2c          11   2.1820572217820047E-002   2.1820572217820047E-002  0.49737575000000001        4.7835745988382461E-005   1.9790801821504804E-016
 chl          11   2.7062678122781232E-006   1.2402368669635599E-004   2.1820572217820047E-002
 chl2c          12   4.5290941298723353E-002   4.5290941298723353E-002  0.30768942500000002        2.2046788195887842E-005   3.5266405360641380E-018
 chl          12   5.6171495138040692E-006   1.2402368669609443E-004   4.5290941298723353E-002
 chl2c          13   3.7935816987997487E-002   3.7935816987997487E-002  0.75666275000000005        4.7835745988382461E-005   2.0223284221467415E-016
 chl          13   4.7150744689284388E-006   1.2429083761186010E-004   3.7935816987997487E-002
 chl2c          14   4.6856526101924839E-002   4.6856526101924839E-002  0.39804095000000000        2.2046788195887842E-005   3.5494076663127113E-017
 chl          14   5.8113191129345099E-006   1.2402368669613739E-004   4.6856526101924839E-002
 chl2c          15  0.10215293449900387        2.0954299823745293E-002  0.25607262500000000        4.7835745988382461E-005   4.0648298801318453E-006
 chl          15   1.3064183355443569E-005   1.2788847838307536E-004  0.10215293449900387     
 chl2c          16   3.7823443882273475E-002   3.7823443882273475E-002  0.71433214999999994        4.7835745988382461E-005   2.4448907432229953E-016
 chl          16   4.7011075223300563E-006   1.2429083763399189E-004   3.7823443882273475E-002
 chl2c          17   3.7542254757581245E-002   3.7542254757581245E-002  0.62580860000000005        4.7835745988382461E-005   2.4438754223591418E-016
 chl          17   4.6661582904884860E-006   1.2429083763399178E-004   3.7542254757581245E-002
 chl2c          18   2.5694475239060960E-002   2.5694475239060960E-002  0.47925950000000000        2.5564925620830672E-005   2.0443837821627621E-016
 chl          18   3.1867235468767968E-006   1.2402368669636469E-004   2.5694475239060960E-002
 chl2c          19  0.12286706060022701        3.7570220750293731E-002  0.63367130000000005        4.7835745988382461E-005   3.6455878542021314E-006
 chl          19   1.5758445890924878E-005   1.2825606646681481E-004  0.12286706060022701     
 chl2c          20   3.7020645196759419E-002   3.7020645196759419E-002  0.50678202500000002        4.7835745988382461E-005   2.1955723954450054E-016
 chl          20   4.6013270004375747E-006   1.2429083761188335E-004   3.7020645196759419E-002
 chl2c          21  0.12027670154289619        3.7838475073783531E-002  0.71973185000000006        4.7835745988382461E-005   3.4539662708087574E-006
 chl          21   1.5406790714012161E-005   1.2809455627212551E-004  0.12027670154289619     
 chl2c          22  0.15653563053478406        3.7613353106285476E-002  0.64616892500000001        4.7835745988382461E-005   4.9409548936744715E-006
 chl          22   2.0278830781755918E-005   1.2954769922014480E-004  0.15653563053478406     
 chl2c          23   3.2286562315070731E-002   3.2286562315070731E-002  0.41564179999999995        3.1381267273895944E-005   4.8913261418245173E-018
 chl          23   4.0042984890583164E-006   1.2402368669609613E-004   3.2286562315070731E-002
 chl2c          24   3.7348402796863071E-002   3.7348402796863071E-002  0.57597492500000003        4.7835745988382461E-005   1.8352252877406579E-016
 chl          24   4.6420642670863102E-006   1.2429083761183494E-004   3.7348402796863071E-002
 chl2c          25   4.5426679235459781E-002   4.5426679235459781E-002  0.31406487500000002        2.2046788195887842E-005   3.7332894034941817E-018
 chl          25   5.6339842331426535E-006   1.2402368669609467E-004   4.5426679235459781E-002
 chl2c          26   4.7955660680174553E-002   4.7955660680174553E-002  0.49427735000000000        2.2046788195887842E-005   3.3902097309861805E-018
 chl          26   5.9476378355021742E-006   1.2402368669609424E-004   4.7955660680174553E-002
 chl2c          27   4.5333133499525620E-002   4.5333133499525620E-002  0.30964730000000001        2.2046788195887842E-005   3.5201330135324169E-017
 chl          27   5.6223823460993187E-006   1.2402368669613701E-004   4.5333133499525620E-002
 chl2c          28   3.1209236063453518E-002   3.1209236063453518E-002  0.28776342500000002        3.1381267273895944E-005   3.4992819551918199E-017
 chl          28   3.8706845155595304E-006   1.2402368669613671E-004   3.1209236063453518E-002
 chl2c          29  0.13640036794280216        3.7743217595736761E-002  0.68676297499999994        4.7835745988382461E-005   4.0709526524896793E-006
 chl          29   1.7556582285273051E-005   1.2871359916444793E-004  0.13640036794280216     
 chl2c          30   2.5380056985171612E-002   2.5380056985171612E-002  0.38930277499999999        2.5564925620830672E-005   2.1889916843972934E-016
 chl          30   3.1477282358653000E-006   1.2402368669638415E-004   2.5380056985171612E-002
 chl2c          31   9.5531596525761694E-002   3.7576959810037038E-002  0.63559385000000002        4.7835745988382461E-005   2.6890907156057096E-006
 chl          31   1.2158142779746340E-005   1.2726828841877141E-004   9.5531596525761694E-002
 chl2c          32  0.10830194819143638        2.0893126428578448E-002  0.24722667500000001        4.7835745988382461E-005   4.6097205770853010E-006
 chl          32   1.3890623786893578E-005   1.2825830023242309E-004  0.10830194819143638     
 chl2c          33  0.12716067448578874        3.7458922634011876E-002  0.60343137499999999        4.7835745988382461E-005   3.8534470909141414E-006
 chl          33   1.6333627239004898E-005   1.2844873074993257E-004  0.12716067448578874     
 chl2c          34   5.4472761501830697E-002   2.5350269098008315E-002  0.38241020000000003        2.5564925620830672E-005   8.1195581762195792E-007
 chl          34   6.8047583805026317E-006   1.2492038576516706E-004   5.4472761501830697E-002
 chl2c          35   2.5740370148566064E-002   2.5740370148566064E-002  0.49574644999999995        2.5564925620830672E-005   1.7063424145889818E-016
 chl          35   3.1924156027530472E-006   1.2402368669631929E-004   2.5740370148566064E-002
 chl2c          36   3.7770393924465726E-002   3.7770393924465726E-002  0.69587337500000002        4.7835745988382461E-005   1.9393887544314558E-016
 chl          36   4.6945138986351179E-006   1.2429083763392396E-004   3.7770393924465726E-002
 chl2c          37   2.1353674699533250E-002   2.1353674699533250E-002  0.33194060000000003        4.7835745988382461E-005   1.5900727975450598E-016
 chl          37   2.6483614607496986E-006   1.2402368669630368E-004   2.1353674699533250E-002
 chl2c          38   2.1543295686358745E-002   2.1543295686358745E-002  0.38455722500000000        4.7835745988382461E-005   2.2221874063381446E-016
 chl          38   2.6718789546126173E-006   1.2402368669638862E-004   2.1543295686358745E-002
 chl2c          39   2.5670077108751441E-002   2.5670077108751441E-002  0.47091117500000002        2.5564925620830672E-005   1.8878829686826287E-016
 chl          39   3.1836976008067742E-006   1.2402368669634374E-004   2.5670077108751441E-002
 chl2c          40   3.7687445774703773E-002   3.7687445774703773E-002  0.66875547499999999        4.7835745988382461E-005   2.4488093003679275E-016
 chl          40   4.6842042036236010E-006   1.2429083763399243E-004   3.7687445774703773E-002
 chl2c          41   2.5582381488167241E-002   2.5582381488167241E-002  0.44304987499999998        2.5564925620830672E-005   1.4598043907381998E-016
 chl          41   3.1728212666333250E-006   1.2402368669628617E-004   2.5582381488167241E-002
 chl2c          42   3.7949995630725070E-002   3.7949995630725070E-002  0.76234377499999995        4.7835745988382461E-005   2.1219772819580817E-016
 chl          42   4.7168367443097563E-006   1.2429083761187343E-004   3.7949995630725070E-002
 chl2c          43   5.2735212683541956E-002   2.1185090152268007E-002  0.29539925000000000        4.7835745988382461E-005   1.5354201181684853E-006
 chl          43   6.6286579005515742E-006   1.2569699757028382E-004   5.2735212683541956E-002
 chl2c          44   3.7536352708156646E-002   3.7536352708156646E-002  0.62417262500000004        4.7835745988382461E-005   1.8525145257458348E-016
 chl          44   4.6654247189901471E-006   1.2429083761183730E-004   3.7536352708156646E-002
 chl2c          45   4.6544927192009838E-002   4.6544927192009838E-002  0.37662252499999999        2.2046788195887842E-005   4.5066734977551652E-018
 chl          45   5.7726734673544149E-006   1.2402368669609573E-004   4.6544927192009838E-002
 chl2c          46  0.11788118865487425        3.7083195475449568E-002  0.51876034999999998        4.7835745988382461E-005   3.6485504453618599E-006
 chl          46   1.5111288042270113E-005   1.2819083532074037E-004  0.11788118865487425     
 chl2c          47   3.7519784612651236E-002   3.7519784612651236E-002  0.61962282499999999        4.7835745988382461E-005   2.2844927802445763E-016
 chl          47   4.6633654565243229E-006   1.2429083761189531E-004   3.7519784612651236E-002
 chl2c          48   3.7823212136301673E-002   3.7823212136301673E-002  0.71424949999999998        4.7835745988382461E-005   2.2104398990879085E-016
 chl          48   4.7010787175929616E-006   1.2429083761188533E-004   3.7823212136301673E-002
 chl2c          49   3.7152990741888416E-002   3.7152990741888416E-002  0.53276120000000005        4.7835745988382461E-005   2.0791930402908929E-016
 chl          49   4.6177763390952767E-006   1.2429083761186769E-004   3.7152990741888416E-002
 chl2c          50  0.11070611437279605        2.1533072915600981E-002  0.38132569999999999        4.7835745988382461E-005   3.7310495335384651E-006
 chl          50   1.4155680582507520E-005   1.2786719742361415E-004  0.11070611437279605     
 chl2c          51   2.0700971146093840E-002   2.0700971146093840E-002  0.22275920000000002        4.7835745988382461E-005   2.3225335068027195E-016
 chl          51   2.5674107597344016E-006   1.2402368669640207E-004   2.0700971146093840E-002
 chl2c          52   3.7581825176985564E-002   3.7581825176985564E-002  0.63698869999999996        4.7835745988382461E-005   2.4067801041797333E-016
 chl          52   4.6710765310615900E-006   1.2429083763398679E-004   3.7581825176985564E-002
 chl2c          53   3.7925801262726190E-002   3.7925801262726190E-002  0.75269794999999995        4.7835745988382461E-005   2.1935740746732013E-016
 chl          53   4.7138296068832679E-006   1.2429083763395820E-004   3.7925801262726190E-002
 chl2c          54   3.7082433371327092E-002   3.7082433371327092E-002  0.51861124999999997        4.7835745988382461E-005   1.8499200486487117E-016
 chl          54   4.6090067044073771E-006   1.2429083761183690E-004   3.7082433371327092E-002
 chl2c          55  0.15140892601570305        3.7357235588660491E-002  0.57808280000000001        4.7835745988382461E-005   4.9064573841166821E-006
 chl          55   1.9600055252661183E-005   1.2945112133368151E-004  0.15140892601570305     
 chl2c          56   3.7507394187257688E-002   3.7507394187257688E-002  0.61626080000000005        4.7835745988382461E-005   2.4120772540136606E-016
 chl          56   4.6618254410024126E-006   1.2429083763398753E-004   3.7507394187257688E-002
 chl2c          57   6.5459706780826354E-002   3.7727617852646313E-002  0.68163462500000005        4.7835745988382461E-005   1.7319854451968658E-006
 chl          57   8.2641087199587551E-006   1.2624726150437592E-004   6.5459706780826354E-002
 chl2c          58  0.14422372373150619        3.7765358178394853E-002  0.69416802499999997        4.7835745988382461E-005   4.3541677720735294E-006
 chl          58   1.8605295867944018E-005   1.2900301965979279E-004  0.14422372373150619     
 chl2c          59   4.2806118310870708E-002   3.7173699120809672E-002  0.53705127500000005        4.7835745988382461E-005   1.1125043881909464E-006
 chl          59   5.3744517382153666E-006   1.2555335429352660E-004   4.2806118310870708E-002
 chl2c          60  0.10910895065728339        3.7607757740906807E-002  0.64452155000000000        4.7835745988382461E-005   3.1414618535366495E-006
 chl          60   1.3937983739566213E-005   1.2774372455790642E-004  0.10910895065728339     
 chl2c          61   3.7805373434125003E-002   3.7805373434125003E-002  0.70794139999999994        4.7835745988382461E-005   2.1538188535851233E-016
 chl          61   4.6988615303572277E-006   1.2429083761187774E-004   3.7805373434125003E-002
 chl2c          62   3.7956103087269030E-002   3.7956103087269030E-002  0.76481592499999995        4.7835745988382461E-005   1.8073993767068511E-016
 chl          62   4.7175958451976801E-006   1.2429083761183120E-004   3.7956103087269030E-002
 chl2c          63  0.12931083821718400        3.7855601011927406E-002  0.72597904999999996        4.7835745988382461E-005   3.7631252171135083E-006
 chl          63   1.6605726671844047E-005   1.2841712961410011E-004  0.12931083821718400     
 chl2c          64   2.5708982294816416E-002   2.5708982294816416E-002  0.48435739999999999        2.5564925620830672E-005   1.4271446509746528E-016
 chl          64   3.1885227654125664E-006   1.2402368669628178E-004   2.5708982294816416E-002
 chl2c          65   3.7953597170552002E-002   3.7953597170552002E-002  0.76379975000000000        4.7835745988382461E-005   8.5106082811979924E-007
 chl          65   4.7557200944507802E-006   1.2530354034902174E-004   3.7953597170552002E-002
 chl2c          66   3.1840477731474713E-002   3.1840477731474713E-002  0.35213202499999996        3.1381267273895944E-005   3.7112815548245636E-018
 chl          66   3.9489734344223982E-006   1.2402368669609464E-004   3.1840477731474713E-002
 chl2c          67   3.7937587124568600E-002   3.7937587124568600E-002  0.75736760000000003        4.7835745988382461E-005   2.0690649906890356E-016
 chl          67   4.7152944806857891E-006   1.2429083761186639E-004   3.7937587124568600E-002
 chl2c          68  0.14349978729024301        3.7855407263856986E-002  0.72590779999999999        4.7835745988382461E-005   4.2778734645331086E-006
 chl          68   1.8503352688253625E-005   1.2894341544094905E-004  0.14349978729024301     
 chl2c          69   9.9558842983789295E-002   2.1732330561541505E-002  0.45524217500000003        4.7835745988382461E-005   3.0477642607149757E-006
 chl          69   1.2672944536351449E-005   1.2729099853455434E-004   9.9558842983789295E-002
 chl2c          70   3.2658010878182209E-002   3.2658010878182209E-002  0.48694062500000002        3.1381267273895944E-005   4.2790524668831335E-017
 chl          70   4.0503669092750362E-006   1.2402368669614717E-004   3.2658010878182209E-002
 chl2c          71   4.3481058864416305E-002   4.3481058864416305E-002  0.23986107500000001        2.2046788195887842E-005   4.1471331228377448E-018
 chl          71   5.3926812218207762E-006   1.2402368669623171E-004   4.3481058864416305E-002
 chl2c          72   3.7549776402781669E-002   3.7549776402781669E-002  0.62790522500000001        4.7835745988382461E-005   2.4184118712506475E-016
 chl          72   4.6670931620707028E-006   1.2429083763398834E-004   3.7549776402781669E-002
 chl2c          73   3.1852614277819484E-002   3.1852614277819484E-002  0.35362212500000001        3.1381267273895944E-005   4.6532335087271788E-018
 chl          73   3.9504786536438713E-006   1.2402368669609581E-004   3.1852614277819484E-002
 chl2c          74  0.12430043165398122        3.7616827685877569E-002  0.64719590000000005        4.7835745988382461E-005   3.6797309999233184E-006
 chl          74   1.5947407616228221E-005   1.2829728267252916E-004  0.12430043165398122     
 chl2c          75   3.7826830779512356E-002   3.7826830779512356E-002  0.71554212500000003        4.7835745988382461E-005   1.9769003548788129E-016
 chl          75   4.7015284826224773E-006   1.2429083763392898E-004   3.7826830779512356E-002
 chl2c          76  0.13903565109783242        3.7257729557919804E-002  0.55513977500000000        4.7835745988382461E-005   4.4365875430797687E-006
 chl          76   1.7933137820901246E-005   1.2898229827601983E-004  0.13903565109783242     
 chl2c          77   8.3199502430949743E-002   3.7138172437479272E-002  0.52973029999999999        4.7835745988382461E-005   2.3607319695998894E-006
 chl          77   1.0557576360513368E-005   1.2689470552153218E-004   8.3199502430949743E-002
 chl2c          78   4.7515248899399322E-002   4.7515248899399322E-002  0.45117492500000000        2.2046788195887842E-005   1.8289589605011716E-007
 chl          78   5.9046033348340367E-006   1.2426754508506176E-004   4.7515248899399322E-002
 prod   1.6954071117204498E-008   34.431906752592326        10.000000000000000     
 chl2c           1  0.10466895774255078        3.7477407714772232E-002  0.60826437499999997        3.9868141220448223E-005   2.5201390501028855E-006
 chl           1   8.7412639489707562E-006   8.3513432611713052E-005  0.10466895774255078     
 chl2c           2   3.2640259920490348E-002   3.2640259920490348E-002  0.48302390000000001        2.6339639174995809E-005   2.3678520846182697E-008
 chl           2   2.6614794994068500E-006   8.1539776518019434E-005   3.2640259920490348E-002
 chl2c           3   3.7922212503796585E-002   3.7922212503796585E-002  0.75128689999999998        3.9868141220448223E-005   3.3793997561713903E-016
 chl           3   3.0981803494889049E-006   8.1698301468531944E-005   3.7922212503796585E-002
 chl2c           4  0.24336185758949327        3.7976509103863923E-002  0.77318742499999993        3.9868141220448223E-005   7.0794639437003538E-006
 chl           4   2.1041930714141482E-005   8.6463552351886426E-005  0.24336185758949327     
 chl2c           5  0.15029241692886908        2.5710500362372445E-002  0.48489679999999996        2.1438817069973312E-005   2.3346704368771579E-006
 chl           5   1.2485815696862009E-005   8.3076817526804027E-005  0.15029241692886908     
 chl2c           6   3.1261039902252048E-002   3.1261039902252048E-002  0.29222855000000003        2.6339639174995809E-005   3.4746354594289694E-017
 chl           6   2.5484099474994358E-006   8.1520319076648762E-005   3.1261039902252048E-002
 chl2c           7   4.3064391842467263E-002   4.3064391842467263E-002  0.22770740000000000        1.8625730566121940E-005   5.0189475856864064E-008
 chl           7   3.5123971154781576E-006   8.1561516724229296E-005   4.3064391842467263E-002
 chl2c           8   4.7969800906495587E-002   4.7969800906495587E-002  0.49578364999999996        1.8625730566121940E-005   3.5746904390463678E-008
 chl           8   3.9119200344192477E-006   8.1549640825995907E-005   4.7969800906495587E-002
 chl2c           9  0.17920956336010577        2.4803669054600401E-002  0.28700202499999999        2.1438817069973312E-005   5.1147990479988900E-006
 chl           9   1.5042357091713300E-005   8.3937245366124872E-005  0.17920956336010577     
 chl2c          10  0.19012909220459590        2.5387016219684602E-002  0.39094662499999999        2.1438817069973312E-005   3.9676672131880046E-006
 chl          10   1.5932229595991818E-005   8.3796905624770537E-005  0.19012909220459590     
 chl2c          11   2.1820572217820047E-002   2.1820572217820047E-002  0.49737575000000001        3.9868141220448223E-005   2.6554935581204914E-016
 chl          11   1.7788200096362012E-006   8.1520319076852863E-005   2.1820572217820047E-002
 chl2c          12   4.5290941298723353E-002   4.5290941298723353E-002  0.30768942500000002        1.8625730566121940E-005   2.5883309695631896E-018
 chl          12   3.6921319859524107E-006   8.1520319076620369E-005   4.5290941298723353E-002
 chl2c          13   3.7935816987997487E-002   3.7935816987997487E-002  0.75666275000000005        3.9868141220448223E-005   2.9504375410678164E-016
 chl          13   3.0992918121834793E-006   8.1698301453849380E-005   3.7935816987997487E-002
 chl2c          14   4.6856526101924839E-002   4.6856526101924839E-002  0.39804095000000000        1.8625730566121940E-005   2.6792480454064267E-017
 chl          14   3.8197589586519060E-006   8.1520319076641755E-005   4.6856526101924839E-002
 chl2c          15  0.12553929527747520        2.0954299823745293E-002  0.25607262500000000        3.9868141220448223E-005   4.9092756252705310E-006
 chl          15   1.0586776959491526E-005   8.4330383853851781E-005  0.12553929527747520     
 chl2c          16   3.7823443882273475E-002   3.7823443882273475E-002  0.71433214999999994        3.9868141220448223E-005   3.4778225988165774E-016
 chl          16   3.0901111208724371E-006   8.1698301468541417E-005   3.7823443882273475E-002
 chl2c          17   3.7542254757581245E-002   3.7542254757581245E-002  0.62580860000000005        3.9868141220448223E-005   3.4765869381446064E-016
 chl          17   3.0671384469936227E-006   8.1698301468540537E-005   3.7542254757581245E-002
 chl2c          18   2.5694475239060960E-002   2.5694475239060960E-002  0.47925950000000000        2.1438817069973312E-005   2.7257826011252332E-016
 chl          18   2.0946218200007041E-006   8.1520319076859070E-005   2.5694475239060960E-002
 chl2c          19  0.18937795047808512        3.7570220750293731E-002  0.63367130000000005        3.9868141220448223E-005   5.3841807330631822E-006
 chl          19   1.6162329784682176E-005   8.5344306155391025E-005  0.18937795047808512     
 chl2c          20   3.7020645196759419E-002   3.7020645196759419E-002  0.50678202500000002        3.9868141220448223E-005   3.1698867069193800E-016
 chl          20   3.0245238313015714E-006   8.1698301453868815E-005   3.7020645196759419E-002
 chl2c          21  0.19361406511232129        3.7838475073783531E-002  0.71973185000000006        3.9868141220448223E-005   5.2798384523667060E-006
 chl          21   1.6523041638304022E-005   8.5340089464670419E-005  0.19361406511232129     
 chl2c          22  0.22577611190596042        3.7613353106285476E-002  0.64616892500000001        3.9868141220448223E-005   6.9177484810212002E-006
 chl          22   1.9470410947692980E-005   8.6237692656354793E-005  0.22577611190596042     
 chl2c          23   3.2286562315070731E-002   3.2286562315070731E-002  0.41564179999999995        2.6339639174995809E-005   3.5923056752883592E-018
 chl          23   2.6320108618117797E-006   8.1520319076621196E-005   3.2286562315070731E-002
 chl2c          24   3.7348402796863071E-002   3.7348402796863071E-002  0.57597492500000003        3.9868141220448223E-005   2.7082008087478459E-016
 chl          24   3.0513010705171104E-006   8.1698301453827954E-005   3.7348402796863071E-002
 chl2c          25   4.5426679235459781E-002   4.5426679235459781E-002  0.31406487500000002        1.8625730566121940E-005   2.7402732871680751E-018
 chl          25   3.7031973858659719E-006   8.1520319076620491E-005   4.5426679235459781E-002
 chl2c          26   4.7955660680174553E-002   4.7955660680174553E-002  0.49427735000000000        1.8625730566121940E-005   2.4880344721607550E-018
 chl          26   3.9093607601779626E-006   8.1520319076620288E-005   4.7955660680174553E-002
 chl2c          27   4.5333133499525620E-002   4.5333133499525620E-002  0.30964730000000001        1.8625730566121940E-005   2.6568562031728940E-017
 chl          27   3.6955715076253173E-006   8.1520319076641565E-005   4.5333133499525620E-002
 chl2c          28   3.1209236063453518E-002   3.1209236063453518E-002  0.28776342500000002        2.6339639174995809E-005   2.6409104656269309E-017
 chl          28   2.5441868820309554E-006   8.1520319076641430E-005   3.1209236063453518E-002
 chl2c          29  0.19750865624647049        3.7743217595736761E-002  0.68676297499999994        3.9868141220448223E-005   5.5265529058201789E-006
 chl          29   1.6881236356622174E-005   8.5470868353010963E-005  0.19750865624647049     
 chl2c          30   2.5380056985171612E-002   2.5380056985171612E-002  0.38930277499999999        2.1438817069973312E-005   2.8783287991185954E-016
 chl          30   2.0689903436203981E-006   8.1520319076872554E-005   2.5380056985171612E-002
 chl2c          31  0.12588010750545542        3.7576959810037038E-002  0.63559385000000002        3.9868141220448223E-005   3.1290063240483712E-006
 chl          31   1.0565427422035510E-005   8.3932462653621613E-005  0.12588010750545542     
 chl2c          32  0.13492041646857592        2.0893126428578448E-002  0.24722667500000001        3.9868141220448223E-005   5.9205906412889356E-006
 chl          32   1.1426368269597445E-005   8.4689690179386165E-005  0.13492041646857592     
 chl2c          33  0.19231801893554859        3.7458922634011876E-002  0.60343137499999999        3.9868141220448223E-005   5.6270693821010019E-006
 chl          33   1.6435615840708267E-005   8.5460613267945132E-005  0.19231801893554859     
 chl2c          34   4.4174348699134301E-002   2.5350269098008315E-002  0.38241020000000003        2.1438817069973312E-005   5.3536602507957058E-007
 chl          34   3.6185318586800395E-006   8.1914775548257331E-005   4.4174348699134301E-002
 chl2c          35   2.5740370148566064E-002   2.5740370148566064E-002  0.49574644999999995        2.1438817069973312E-005   2.3520446380338319E-016
 chl          35   2.0983631876667145E-006   8.1520319076826069E-005   2.5740370148566064E-002
 chl2c          36   3.7770393924465726E-002   3.7770393924465726E-002  0.69587337500000002        3.9868141220448223E-005   2.8437390981262247E-016
 chl          36   3.0857770294244192E-006   8.1698301468484578E-005   3.7770393924465726E-002
 chl2c          37   2.1353674699533250E-002   2.1353674699533250E-002  0.33194060000000003        3.9868141220448223E-005   2.2176017865616642E-016
 chl          37   1.7407583749684444E-006   8.1520319076814170E-005   2.1353674699533250E-002
 chl2c          38   2.1543295686358745E-002   2.1543295686358745E-002  0.38455722500000000        3.9868141220448223E-005   2.9127582096473181E-016
 chl          38   1.7562163383194424E-006   8.1520319076875590E-005   2.1543295686358745E-002
 chl2c          39   2.5670077108751441E-002   2.5670077108751441E-002  0.47091117500000002        2.1438817069973312E-005   2.5558312598376411E-016
 chl          39   2.0926328766326077E-006   8.1520319076844040E-005   2.5670077108751441E-002
 chl2c          40   3.7687445774703773E-002   3.7687445774703773E-002  0.66875547499999999        3.9868141220448223E-005   3.4825901538186912E-016
 chl          40   3.0790003064810708E-006   8.1698301468541797E-005   3.7687445774703773E-002
 chl2c          41   2.5582381488167241E-002   2.5582381488167241E-002  0.44304987499999998        2.1438817069973312E-005   2.0631676253557902E-016
 chl          41   2.0854839016598994E-006   8.1520319076803301E-005   2.5582381488167241E-002
 chl2c          42   3.7949995630725070E-002   3.7949995630725070E-002  0.76234377499999995        3.9868141220448223E-005   3.0772224907472147E-016
 chl          42   3.1004501832117739E-006   8.1698301453863353E-005   3.7949995630725070E-002
 chl2c          43   9.4810034223548195E-002   2.1185090152268007E-002  0.29539925000000000        3.9868141220448223E-005   2.7832492678649447E-006
 chl          43   7.9034584886953776E-006   8.3360991834051848E-005   9.4810034223548195E-002
 chl2c          44   3.7536352708156646E-002   3.7536352708156646E-002  0.62417262500000004        3.9868141220448223E-005   2.7308173412657693E-016
 chl          44   3.0666562590282689E-006   8.1698301453829973E-005   3.7536352708156646E-002
 chl2c          45   4.6544927192009838E-002   4.6544927192009838E-002  0.37662252499999999        1.8625730566121940E-005   3.3091888221479363E-018
 chl          45   3.7943573160907335E-006   8.1520319076620965E-005   4.6544927192009838E-002
 chl2c          46  0.16072247008038418        3.7083195475449568E-002  0.51876034999999998        3.9868141220448223E-005   4.6420561390850567E-006
 chl          46   1.3631603610949639E-005   8.4814547736429704E-005  0.16072247008038418     
 chl2c          47   3.7519784612651236E-002   3.7519784612651236E-002  0.61962282499999999        3.9868141220448223E-005   3.2807627652696110E-016
 chl          47   3.0653026737689776E-006   8.1698301453878627E-005   3.7519784612651236E-002
 chl2c          48   3.7823212136301673E-002   3.7823212136301673E-002  0.71424949999999998        3.9868141220448223E-005   3.1885073716144906E-016
 chl          48   3.0900921870652652E-006   8.1698301453870441E-005   3.7823212136301673E-002
 chl2c          49   3.7152990741888416E-002   3.7152990741888416E-002  0.53276120000000005        3.9868141220448223E-005   3.0229741842930938E-016
 chl          49   3.0353362375431142E-006   8.1698301453855818E-005   3.7152990741888416E-002
 chl2c          50  0.15131824185055467        2.1533072915600981E-002  0.38132569999999999        3.9868141220448223E-005   5.0008224612560577E-006
 chl          50   1.2810616185922483E-005   8.4660091402426798E-005  0.15131824185055467     
 chl2c          51   2.0700971146093840E-002   2.0700971146093840E-002  0.22275920000000002        3.9868141220448223E-005   3.0155336876146582E-016
 chl          51   1.6875497730309529E-006   8.1520319076884670E-005   2.0700971146093840E-002
 chl2c          52   3.7581825176985564E-002   3.7581825176985564E-002  0.63698869999999996        3.9868141220448223E-005   3.4313396576617572E-016
 chl          52   3.0703712830472030E-006   8.1698301468536539E-005   3.7581825176985564E-002
 chl2c          53   3.7925801262726190E-002   3.7925801262726190E-002  0.75269794999999995        3.9868141220448223E-005   3.1673813996536436E-016
 chl          53   3.0984735450019636E-006   8.1698301468640839E-005   3.7925801262726190E-002
 chl2c          54   3.7082433371327092E-002   3.7082433371327092E-002  0.51861124999999997        3.9868141220448223E-005   2.7274264875214653E-016
 chl          54   3.0295718202122330E-006   8.1698301453829648E-005   3.7082433371327092E-002
 chl2c          55  0.21601877098610581        3.7357235588660491E-002  0.57808280000000001        3.9868141220448223E-005   6.8753078825954435E-006
 chl          55   1.8604500110312236E-005   8.6124460505836620E-005  0.21601877098610581     
 chl2c          56   3.7507394187257688E-002   3.7507394187257688E-002  0.61626080000000005        3.9868141220448223E-005   3.4378130380436193E-016
 chl          56   3.0642903976098347E-006   8.1698301468537108E-005   3.7507394187257688E-002
 chl2c          57   7.6350377115116538E-002   3.7727617852646313E-002  0.68163462500000005        3.9868141220448223E-005   1.7139551373794449E-006
 chl          57   6.3345422769610585E-006   8.2966745107364878E-005   7.6350377115116538E-002
 chl2c          58  0.21843653649110012        3.7765358178394853E-002  0.69416802499999997        3.9868141220448223E-005   6.3536601480691337E-006
 chl          58   1.8778179293883084E-005   8.5966292981614701E-005  0.21843653649110012     
 chl2c          59   9.2771400341701324E-002   3.7173699120809672E-002  0.53705127500000005        3.9868141220448223E-005   2.2354719029185267E-006
 chl          59   7.7284317015724013E-006   8.3306187824120005E-005   9.2771400341701324E-002
 chl2c          60  0.17597739771027368        3.7607757740906807E-002  0.64452155000000000        3.9868141220448223E-005   4.8254720489710556E-006
 chl          60   1.4960619713884988E-005   8.5014438834445707E-005  0.17597739771027368     
 chl2c          61   3.7805373434125003E-002   3.7805373434125003E-002  0.70794139999999994        3.9868141220448223E-005   3.1174150312957228E-016
 chl          61   3.0886347953970531E-006   8.1698301453864180E-005   3.7805373434125003E-002
 chl2c          62   3.7956103087269030E-002   3.7956103087269030E-002  0.76481592499999995        3.9868141220448223E-005   2.6717001411145149E-016
 chl          62   3.1009491520361529E-006   8.1698301453824728E-005   3.7956103087269030E-002
 chl2c          63  0.19923590894709814        3.7855601011927406E-002  0.72597904999999996        3.9868141220448223E-005   5.4737985066368835E-006
 chl          63   1.7027555523325449E-005   8.5464290113719757E-005  0.19923590894709814     
 chl2c          64   2.5708982294816416E-002   2.5708982294816416E-002  0.48435739999999999        2.1438817069973312E-005   2.0238004319570017E-016
 chl          64   2.0958044398131601E-006   8.1520319076797040E-005   2.5708982294816416E-002
 chl2c          65   8.0089748790813736E-002   3.7953597170552002E-002  0.76379975000000000        3.9868141220448223E-005   1.7835303452374591E-006
 chl          65   6.6488722034929495E-006   8.3017768239717252E-005   8.0089748790813736E-002
 chl2c          66   3.1840477731474713E-002   3.1840477731474713E-002  0.35213202499999996        2.6339639174995809E-005   2.7240901665948383E-018
 chl          66   2.5956459042218479E-006   8.1520319076620491E-005   3.1840477731474713E-002
 chl2c          67   3.7937587124568600E-002   3.7937587124568600E-002  0.75736760000000003        3.9868141220448223E-005   3.0100912849568460E-016
 chl          67   3.0994364293348811E-006   8.1698301453854666E-005   3.7937587124568600E-002
 chl2c          68  0.22031860483611493        3.7855407263856986E-002  0.72590779999999999        3.9868141220448223E-005   6.3056642673236400E-006
 chl          68   1.8939782630715781E-005   8.5965425592651298E-005  0.22031860483611493     
 chl2c          69  0.13405607888982882        2.1732330561541505E-002  0.45524217500000003        3.9868141220448223E-005   3.7876361888235832E-006
 chl          69   1.1271457606929147E-005   8.4080167794497096E-005  0.13405607888982882     
 chl2c          70   3.2658010878182209E-002   3.2658010878182209E-002  0.48694062500000002        2.6339639174995809E-005   3.2389330014420554E-017
 chl          70   2.6622914671980113E-006   8.1520319076646661E-005   3.2658010878182209E-002
 chl2c          71   4.3481058864416305E-002   4.3481058864416305E-002  0.23986107500000001        1.8625730566121940E-005   3.0446511277834505E-018
 chl          71   3.5445898049385877E-006   8.1520319364609172E-005   4.3481058864416305E-002
 chl2c          72   3.7549776402781669E-002   3.7549776402781669E-002  0.62790522500000001        3.9868141220448223E-005   3.4455489347726190E-016
 chl          72   3.0677529526306432E-006   8.1698301468537785E-005   3.7549776402781669E-002
 chl2c          73   3.1852614277819484E-002   3.1852614277819484E-002  0.35362212500000001        2.6339639174995809E-005   3.4170492702805675E-018
 chl          73   2.5966352793523801E-006   8.1520319076621060E-005   3.1852614277819484E-002
 chl2c          74  0.19478921035751201        3.7616827685877569E-002  0.64719590000000005        3.9868141220448223E-005   5.5547897896325471E-006
 chl          74   1.6645868631135865E-005   8.5455804254169881E-005  0.19478921035751201     
 chl2c          75   3.7826830779512356E-002   3.7826830779512356E-002  0.71554212500000003        3.9868141220448223E-005   2.8921293753340390E-016
 chl          75   3.0903878246221139E-006   8.1698301468488861E-005   3.7826830779512356E-002
 chl2c          76  0.20059669074094494        3.7257729557919804E-002  0.55513977500000000        3.9868141220448223E-005   6.2611352177250969E-006
 chl          76   1.7203651367503352E-005   8.5762388721160576E-005  0.20059669074094494     
 chl2c          77  0.14206802689156808        3.7138172437479272E-002  0.52973029999999999        3.9868141220448223E-005   3.8698454232051648E-006
 chl          77   1.1984554011619686E-005   8.4357854992712540E-005  0.14206802689156808     
 chl2c          78   4.7515248899399322E-002   4.7515248899399322E-002  0.45117492500000000        1.8625730566121940E-005   5.5668973326458113E-008
 chl          78   3.8757934212608260E-006   8.1569464772598992E-005   4.7515248899399322E-002
 prod   1.2421931116671488E-008   28.599220300586346        10.000000000000000     
 chl2c           1  0.24575331699560535        3.7477407714772232E-002  0.60826437499999997        3.2104677191835515E-005   6.6192505882905825E-006
 chl           1   4.6745172543300210E-006   1.9021176647693478E-005  0.24575331699560535     
 chl2c           2   3.2640259920490348E-002   3.2640259920490348E-002  0.48302390000000001        2.1368906139073731E-005   3.6039831167470081E-009
 chl           2   5.8238712878917268E-007   1.7842600831238220E-005   3.2640259920490348E-002
 chl2c           3   3.7922212503796585E-002   3.7922212503796585E-002  0.75128689999999998        3.2104677191835515E-005   5.8250638499160547E-016
 chl           3   6.8670618115857484E-007   1.8108283663296947E-005   3.7922212503796585E-002
 chl2c           4  0.37311114177156202        3.7976509103863923E-002  0.77318742499999993        3.2104677191835515E-005   1.1574933513621384E-005
 chl           4   7.3149108899716705E-006   1.9605179451998884E-005  0.37311114177156202     
 chl2c           5  0.12158608113816197        2.5710500362372445E-002  0.48489679999999996        1.7400903410599062E-005   1.4118766910508893E-006
 chl           5   2.1952826140334733E-006   1.8055377667275145E-005  0.12158608113816197     
 chl2c           6   3.1261039902252048E-002   3.1261039902252048E-002  0.29222855000000003        2.1368906139073731E-005   1.7323038866227356E-017
 chl           6   5.5775890723298053E-007   1.7841981871908219E-005   3.1261039902252048E-002
 chl2c           7   4.3064391842467263E-002   4.3064391842467263E-002  0.22770740000000000        1.5224312294663871E-005   2.1646586654805956E-008
 chl           7   7.6851306891654778E-007   1.7845673328624389E-005   4.3064391842467263E-002
 chl2c           8   4.7969800906495587E-002   4.7969800906495587E-002  0.49578364999999996        1.5224312294663871E-005   2.0160758491180814E-008
 chl           8   8.5604109642691576E-007   1.7845416913352236E-005   4.7969800906495587E-002
 chl2c           9  0.21649970329349486        2.4803669054600401E-002  0.28700202499999999        1.7400903410599062E-005   7.6679742928434106E-006
 chl           9   3.9892489051479061E-006   1.8426117193056545E-005  0.21649970329349486     
 chl2c          10  0.20350041597235394        2.5387016219684602E-002  0.39094662499999999        1.7400903410599062E-005   3.6927330102973703E-006
 chl          10   3.7214527634238135E-006   1.8287199786016076E-005  0.20350041597235394     
 chl2c          11   2.1820572217820047E-002   2.1820572217820047E-002  0.49737575000000001        3.2104677191835515E-005   3.9913957196562502E-016
 chl          11   3.8932225394662133E-007   1.7841981871982090E-005   2.1820572217820047E-002
 chl2c          12   4.5290941298723353E-002   4.5290941298723353E-002  0.30768942500000002        1.5224312294663871E-005   1.1761427070802163E-018
 chl          12   8.0808015361333999E-007   1.7841981871905098E-005   4.5290941298723353E-002
 chl2c          13   3.7935816987997487E-002   3.7935816987997487E-002  0.75666275000000005        3.2104677191835515E-005   5.3515735884191145E-016
 chl          13   6.8695253489294396E-007   1.8108283660011563E-005   3.7935816987997487E-002
 chl2c          14   4.6856526101924839E-002   4.6856526101924839E-002  0.39804095000000000        1.5224312294663871E-005   1.3275805457886289E-017
 chl          14   8.3601328929110071E-007   1.7841981871907440E-005   4.6856526101924839E-002
 chl2c          15  0.14195435974981790        2.0954299823745293E-002  0.25607262500000000        3.2104677191835515E-005   5.1132265980655042E-006
 chl          15   2.6166753239022568E-006   1.8433215637152091E-005  0.14195435974981790     
 chl2c          16   3.7823443882273475E-002   3.7823443882273475E-002  0.71433214999999994        3.2104677191835515E-005   5.9271484378494362E-016
 chl          16   6.8491765106127804E-007   1.8108283666424013E-005   3.7823443882273475E-002
 chl2c          17   3.7542254757581245E-002   3.7542254757581245E-002  0.62580860000000005        3.2104677191835515E-005   5.9258810539854868E-016
 chl          17   6.7982579851011429E-007   1.8108283663298912E-005   3.7542254757581245E-002
 chl2c          18   2.5694475239060960E-002   2.5694475239060960E-002  0.47925950000000000        1.7400903410599062E-005   4.0468093366220765E-016
 chl          18   4.5844036142544592E-007   1.7841981871983164E-005   2.5694475239060960E-002
 chl2c          19  0.31158975631585950        3.7570220750293731E-002  0.63367130000000005        3.2104677191835515E-005   9.8405570169363350E-006
 chl          19   6.0330396545737222E-006   1.9362124499555151E-005  0.31158975631585950     
 chl2c          20   3.7020645196759419E-002   3.7020645196759419E-002  0.50678202500000002        3.2104677191835515E-005   5.5998215565022973E-016
 chl          20   6.7038034449974375E-007   1.8108283660016415E-005   3.7020645196759419E-002
 chl2c          21  0.33384718432867189        3.7838475073783531E-002  0.71973185000000006        3.2104677191835515E-005   9.9953781792790353E-006
 chl          21   6.4839377081761073E-006   1.9421873277782938E-005  0.33384718432867189     
 chl2c          22  0.33798692558966531        3.7613353106285476E-002  0.64616892500000001        3.2104677191835515E-005   1.1375670722475861E-005
 chl          22   6.5938274157397997E-006   1.9509119780997294E-005  0.33798692558966531     
 chl2c          23   3.2286562315070731E-002   3.2286562315070731E-002  0.41564179999999995        2.1368906139073731E-005   1.6339824221804477E-018
 chl          23   5.7605625953182660E-007   1.7841981871911302E-005   3.2286562315070731E-002
 chl2c          24   3.7348402796863071E-002   3.7348402796863071E-002  0.57597492500000003        3.2104677191835515E-005   5.0616689637545577E-016
 chl          24   6.7631547209375447E-007   1.8108283660005908E-005   3.7348402796863071E-002
 chl2c          25   4.5426679235459781E-002   4.5426679235459781E-002  0.31406487500000002        1.5224312294663871E-005   1.2453738003560365E-018
 chl          25   8.1050198741999644E-007   1.7841981871906755E-005   4.5426679235459781E-002
 chl2c          26   4.7955660680174553E-002   4.7955660680174553E-002  0.49427735000000000        1.5224312294663871E-005   1.1304550116020047E-018
 chl          26   8.5562402851090596E-007   1.7841981871905088E-005   4.7955660680174553E-002
 chl2c          27   4.5333133499525620E-002   4.5333133499525620E-002  0.30964730000000001        1.5224312294663871E-005   1.3162580329473390E-017
 chl          27   8.0883294609529509E-007   1.7841981871907419E-005   4.5333133499525620E-002
 chl2c          28   3.1209236063453518E-002   3.1209236063453518E-002  0.28776342500000002        2.1368906139073731E-005   1.3081973849776802E-017
 chl          28   5.5683462408021649E-007   1.7841981871907406E-005   3.1209236063453518E-002
 chl2c          29  0.28867848261653689        3.7743217595736761E-002  0.68676297499999994        3.2104677191835515E-005   7.9943717413974439E-006
 chl          29   5.5429927390931805E-006   1.9201267406051035E-005  0.28867848261653689     
 chl2c          30   2.5380056985171612E-002   2.5380056985171612E-002  0.38930277499999999        1.7400903410599062E-005   4.1625370792411710E-016
 chl          30   4.5283051663938825E-007   1.7841981871985397E-005   2.5380056985171612E-002
 chl2c          31  0.13373673647376988        3.7576959810037038E-002  0.63559385000000002        3.2104677191835515E-005   2.7188712026633613E-006
 chl          31   2.4787024804221220E-006   1.8534192965806940E-005  0.13373673647376988     
 chl2c          32  0.16541693468187024        2.0893126428578448E-002  0.24722667500000001        3.2104677191835515E-005   8.0243265580093864E-006
 chl          32   3.0777834339434841E-006   1.8606217313013783E-005  0.16541693468187024     
 chl2c          33  0.30770697674191017        3.7458922634011876E-002  0.60343137499999999        3.2104677191835515E-005   1.0078975409241820E-005
 chl          33   5.9590189751254252E-006   1.9365888411830076E-005  0.30770697674191017     
 chl2c          34   2.5350269098008315E-002   2.5350269098008315E-002  0.38241020000000003        1.7400903410599062E-005   3.6490404875996990E-016
 chl          34   4.5230223986589406E-007   1.7842108031169971E-005   2.5350269098008315E-002
 chl2c          35   2.5740370148566064E-002   2.5740370148566064E-002  0.49574644999999995        1.7400903410599062E-005   3.7355337505008755E-016
 chl          35   4.5925921756869725E-007   1.7841981871977140E-005   2.5740370148566064E-002
 chl2c          36   3.7770393924465726E-002   3.7770393924465726E-002  0.69587337500000002        3.2104677191835515E-005   5.2260149564265311E-016
 chl          36   6.8395700725825128E-007   1.8108283663285254E-005   3.7770393924465726E-002
 chl2c          37   2.1353674699533250E-002   2.1353674699533250E-002  0.33194060000000003        3.2104677191835515E-005   3.6126928879524668E-016
 chl          37   3.8099187688911836E-007   1.7841981871974762E-005   2.1353674699533250E-002
 chl2c          38   2.1543295686358745E-002   2.1543295686358745E-002  0.38455722500000000        3.2104677191835515E-005   4.1878356775876563E-016
 chl          38   3.8437509109884449E-007   1.7841981871985888E-005   2.1543295686358745E-002
 chl2c          39   2.5670077108751441E-002   2.5670077108751441E-002  0.47091117500000002        1.7400903410599062E-005   3.9104329957474923E-016
 chl          39   4.5800505042668538E-007   1.7841981871980522E-005   2.5670077108751441E-002
 chl2c          40   3.7687445774703773E-002   3.7687445774703773E-002  0.66875547499999999        3.2104677191835515E-005   5.9320350350195819E-016
 chl          40   6.8245495874693865E-007   1.8108283666308050E-005   3.7687445774703773E-002
 chl2c          41   2.5582381488167241E-002   2.5582381488167241E-002  0.44304987499999998        1.7400903410599062E-005   3.4635555967675673E-016
 chl          41   4.5644038704915851E-007   1.7841981883519265E-005   2.5582381488167241E-002
 chl2c          42   3.7949995630725070E-002   3.7949995630725070E-002  0.76234377499999995        3.2104677191835515E-005   5.4965907806413140E-016
 chl          42   6.8720928620655510E-007   1.8108283671320815E-005   3.7949995630725070E-002
 chl2c          43  0.16520979948024875        2.1185090152268007E-002  0.29539925000000000        3.2104677191835515E-005   6.0173837688772845E-006
 chl          43   3.0619505379392737E-006   1.8533710152619232E-005  0.16520979948024875     
 chl2c          44   3.7536352708156646E-002   3.7536352708156646E-002  0.62417262500000004        3.2104677191835515E-005   5.0894801214667046E-016
 chl          44   6.7971892240135212E-007   1.8108283660006457E-005   3.7536352708156646E-002
 chl2c          45   4.6544927192009838E-002   4.6544927192009838E-002  0.37662252499999999        1.5224312294663871E-005   1.5047808195314068E-018
 chl          45   8.3045374718898476E-007   1.7841981871905153E-005   4.6544927192009838E-002
 chl2c          46  0.20637234689565770        3.7083195475449568E-002  0.51876034999999998        3.2104677191835515E-005   5.5012609059082947E-006
 chl          46   3.8946264818748738E-006   1.8871842766046582E-005  0.20637234689565770     
 chl2c          47   3.7519784612651236E-002   3.7519784612651236E-002  0.61962282499999999        3.2104677191835515E-005   5.7203978236029654E-016
 chl          47   6.7941890262869609E-007   1.8108283660018770E-005   3.7519784612651236E-002
 chl2c          48   3.7823212136301673E-002   3.7823212136301673E-002  0.71424949999999998        3.2104677191835515E-005   5.6202923506444592E-016
 chl          48   6.8491345429719378E-007   1.8108283660018204E-005   3.7823212136301673E-002
 chl2c          49   3.7152990741888416E-002   3.7152990741888416E-002  0.53276120000000005        3.2104677191835515E-005   5.4350847074629980E-016
 chl          49   6.7277689517195953E-007   1.8108283660013196E-005   3.7152990741888416E-002
 chl2c          50  0.20945715494178699        2.1533072915600981E-002  0.38132569999999999        3.2104677191835515E-005   7.4599031250847970E-006
 chl          50   3.9199238394383600E-006   1.8714681007329627E-005  0.20945715494178699     
 chl2c          51   2.0700971146093840E-002   2.0700971146093840E-002  0.22275920000000002        3.2104677191835515E-005   4.2616443113833284E-016
 chl          51   3.6934635192113886E-007   1.7841981871987318E-005   2.0700971146093840E-002
 chl2c          52   3.7581825176985564E-002   3.7581825176985564E-002  0.63698869999999996        3.2104677191835515E-005   5.8792240891146401E-016
 chl          52   6.8054235088935302E-007   1.8108283663298634E-005   3.7581825176985564E-002
 chl2c          53   3.7925801262726190E-002   3.7925801262726190E-002  0.75269794999999995        3.2104677191835515E-005   5.5970604216289390E-016
 chl          53   6.8677118564822014E-007   1.8108284143839168E-005   3.7925801262726190E-002
 chl2c          54   3.7082433371327092E-002   3.7082433371327092E-002  0.51861124999999997        3.2104677191835515E-005   5.0853204869875099E-016
 chl          54   6.7149922229127757E-007   1.8108283660006376E-005   3.7082433371327092E-002
 chl2c          55  0.31754558742432515        3.7357235588660491E-002  0.57808280000000001        3.2104677191835515E-005   1.1310054024212440E-005
 chl          55   6.1772243526003373E-006   1.9453031618877220E-005  0.31754558742432515     
 chl2c          56   3.7507394187257688E-002   3.7507394187257688E-002  0.61626080000000005        3.2104677191835515E-005   5.8859288871408014E-016
 chl          56   6.7919453341400182E-007   1.8108283663298136E-005   3.7507394187257688E-002
 chl2c          57   3.7727617852646313E-002   3.7727617852646313E-002  0.68163462500000005        3.2104677191835515E-005   5.8901753479307755E-007
 chl          57   6.8703906467227828E-007   1.8210507415434065E-005   3.7727617852646313E-002
 chl2c          58  0.34559163836910478        3.7765358178394853E-002  0.69416802499999997        3.2104677191835515E-005   1.1047606057093037E-005
 chl          58   6.7424962087747853E-006   1.9510009676720093E-005  0.34559163836910478     
 chl2c          59  0.22452153565202973        3.7173699120809672E-002  0.53705127500000005        3.2104677191835515E-005   6.1932800429941209E-006
 chl          59   4.2548406182530884E-006   1.8950701570326729E-005  0.22452153565202973     
 chl2c          60  0.30630663243658851        3.7607757740906807E-002  0.64452155000000000        3.2104677191835515E-005   9.3699958026438262E-006
 chl          60   5.9187035320420843E-006   1.9322805663593889E-005  0.30630663243658851     
 chl2c          61   3.7805373434125003E-002   3.7805373434125003E-002  0.70794139999999994        3.2104677191835515E-005   5.5416469148278700E-016
 chl          61   6.8459042601794140E-007   1.8108283660015277E-005   3.7805373434125003E-002
 chl2c          62   3.7956103087269030E-002   3.7956103087269030E-002  0.76481592499999995        3.2104677191835515E-005   5.0164500784660437E-016
 chl          62   6.8731988133271908E-007   1.8108283660006579E-005   3.7956103087269030E-002
 chl2c          63  0.33234532447376736        3.7855601011927406E-002  0.72597904999999996        3.2104677191835515E-005   9.8391973791650076E-006
 chl          63   6.4506305002081666E-006   1.9409421541951997E-005  0.33234532447376736     
 chl2c          64   2.5708982294816416E-002   2.5708982294816416E-002  0.48435739999999999        1.7400903410599062E-005   3.4240752244417357E-016
 chl          64   4.5869919605094087E-007   1.7841981871971116E-005   2.5708982294816416E-002
 chl2c          65  0.23324455255382720        3.7953597170552002E-002  0.76379975000000000        3.2104677191835515E-005   5.3901240455840455E-006
 chl          65   4.4100236851283259E-006   1.8907295526700883E-005  0.23324455255382720     
 chl2c          66   3.1840477731474713E-002   3.1840477731474713E-002  0.35213202499999996        2.1368906139073731E-005   1.2379991173284282E-018
 chl          66   5.6809722647777011E-007   1.7841981871905108E-005   3.1840477731474713E-002
 chl2c          67   3.7937587124568600E-002   3.7937587124568600E-002  0.75736760000000003        3.2104677191835515E-005   5.4203596701622599E-016
 chl          67   6.8698458902814177E-007   1.8108283660012912E-005   3.7937587124568600E-002
 chl2c          68  0.35378429659756905        3.7855407263856986E-002  0.72590779999999999        3.2104677191835515E-005   1.1078251639598210E-005
 chl          68   6.9097871302350169E-006   1.9531073585481736E-005  0.35378429659756905     
 chl2c          69  0.16262447464063923        2.1732330561541505E-002  0.45524217500000003        3.2104677191835515E-005   4.0613097625416344E-006
 chl          69   2.9950896765522148E-006   1.8417213541631043E-005  0.16262447464063923     
 chl2c          70   3.2658010878182209E-002   3.2658010878182209E-002  0.48694062500000002        2.1368906139073731E-005   1.6118541663861398E-017
 chl          70   5.8268363806110082E-007   1.7841981871907988E-005   3.2658010878182209E-002
 chl2c          71   4.3481058864416305E-002   4.3481058864416305E-002  0.23986107500000001        1.5224312294663871E-005   5.4266093465139118E-009
 chl          71   7.7582834535281713E-007   1.7842903683004224E-005   4.3481058864416305E-002
 chl2c          72   3.7549776402781669E-002   3.7549776402781669E-002  0.62790522500000001        3.2104677191835515E-005   5.8939282650391380E-016
 chl          72   6.7996200259499487E-007   1.8108283663298288E-005   3.7549776402781669E-002
 chl2c          73   3.1852614277819484E-002   3.1852614277819484E-002  0.35362212500000001        2.1368906139073731E-005   1.5539948152841443E-018
 chl          73   5.6831376651764279E-007   1.7841981871905163E-005   3.1852614277819484E-002
 chl2c          74  0.32185542510369564        3.7616827685877569E-002  0.64719590000000005        3.2104677191835515E-005   1.0277720590102858E-005
 chl          74   6.2473935912697730E-006   1.9410558604867334E-005  0.32185542510369564     
 chl2c          75   3.7826830779512356E-002   3.7826830779512356E-002  0.71554212500000003        3.2104677191835515E-005   5.2833661220967941E-016
 chl          75   6.8497898183854175E-007   1.8108283663286372E-005   3.7826830779512356E-002
 chl2c          76  0.29804171548075747        3.7257729557919804E-002  0.55513977500000000        3.2104677191835515E-005   1.0330442211104104E-005
 chl          76   5.7685594741650032E-006   1.9354872739408318E-005  0.29804171548075747     
 chl2c          77  0.26243621858236676        3.7138172437479272E-002  0.52973029999999999        3.2104677191835515E-005   8.3488672491049990E-006
 chl          77   5.0291176811635357E-006   1.9163199760802547E-005  0.26243621858236676     
 chl2c          78   4.7515248899399322E-002   4.7515248899399322E-002  0.45117492500000000        1.5224312294663871E-005   1.6628716549149591E-017
 chl          78   8.4776695580146114E-007   1.7841997578427468E-005   4.7515248899399322E-002
 prod   5.6300562293088450E-009   22.951453546916206        10.000000000000000     
 chl2c           1  0.32786682834869368        3.7477407714772232E-002  0.60826437499999997        2.5902339129724279E-005   9.2113787721446123E-006
 chl           1   4.7153918708751842E-006   1.4382033994180894E-005  0.32786682834869368     
 chl2c           2   3.2640259920490348E-002   3.2640259920490348E-002  0.48302390000000001        1.7353347582871009E-005   9.4924155887111422E-019
 chl           2   4.4165633223191755E-007   1.3531029878676366E-005   3.2640259920490348E-002
 chl2c           3   3.7922212503796585E-002   3.7922212503796585E-002  0.75128689999999998        2.5902339129724279E-005   6.1866907140698433E-016
 chl           3   5.1382373213166202E-007   1.3549413343966166E-005   3.7922212503796585E-002
 chl2c           4  0.41271039366246454        3.7976509103863923E-002  0.77318742499999993        2.5902339129724279E-005   1.1464670568607315E-005
 chl           4   6.0250173318007877E-006   1.4598656647179939E-005  0.41271039366246454     
 chl2c           5   2.5710500362372445E-002   2.5710500362372445E-002  0.48489679999999996        1.4154227938350004E-005   4.3547727128018268E-016
 chl           5   3.4789129601574848E-007   1.3531097843777891E-005   2.5710500362372445E-002
 chl2c           6   3.1261039902252048E-002   3.1261039902252048E-002  0.29222855000000003        1.7353347582871009E-005   1.4398384086432337E-017
 chl           6   4.2299405891812496E-007   1.3531029685536867E-005   3.1261039902252048E-002
 chl2c           7   4.3064391842467263E-002   4.3064391842467263E-002  0.22770740000000000        1.2452153321278801E-005   1.6036478436735047E-008
 chl           7   5.8279462982480051E-007   1.3533097877167440E-005   4.3064391842467263E-002
 chl2c           8   4.7969800906495587E-002   4.7969800906495587E-002  0.49578364999999996        1.2452153321278801E-005   1.7775433555132464E-008
 chl           8   6.4919076489835893E-007   1.3533322061598386E-005   4.7969800906495587E-002
 chl2c           9  0.23125002420758001        2.4803669054600401E-002  0.28700202499999999        1.4154227938350004E-005   8.4248558673153475E-006
 chl           9   3.2223803924510712E-006   1.3934616454606394E-005  0.23125002420758001     
 chl2c          10  0.11174671000637772        2.5387016219684602E-002  0.39094662499999999        1.4154227938350004E-005   1.1073709382554567E-006
 chl          10   1.5259137125983731E-006   1.3655110853029003E-005  0.11174671000637772     
 chl2c          11   2.1820572217820047E-002   2.1820572217820047E-002  0.49737575000000001        2.5902339129724279E-005   4.5790309764537123E-016
 chl          11   2.9525481043581950E-007   1.3531029685587069E-005   2.1820572217820047E-002
 chl2c          12   4.5290941298723353E-002   4.5290941298723353E-002  0.30768942500000002        1.2452153321278801E-005   9.7452045491458619E-019
 chl          12   6.1283307119816959E-007   1.3531029685520004E-005   4.5290941298723353E-002
 chl2c          13   3.7935816987997487E-002   3.7935816987997487E-002  0.75666275000000005        2.5902339129724279E-005   6.7486506497030063E-016
 chl          13   5.1400806484069449E-007   1.3549413342101515E-005   3.7935816987997487E-002
 chl2c          14   4.6856526101924839E-002   4.6856526101924839E-002  0.39804095000000000        1.2452153321278801E-005   1.1022775120708947E-017
 chl          14   6.3401704564555704E-007   1.3531029685521480E-005   4.6856526101924839E-002
 chl2c          15  0.10939715311733354        2.0954299823745293E-002  0.25607262500000000        2.5902339129724279E-005   2.4735498610477879E-006
 chl          15   1.5075410143310568E-006   1.3780441002099468E-005  0.10939715311733354     
 chl2c          16   3.7823443882273475E-002   3.7823443882273475E-002  0.71433214999999994        2.5902339129724279E-005   6.1866907140698433E-016
 chl          16   5.1248591888167376E-007   1.3549425072893957E-005   3.7823443882273475E-002
 chl2c          17   3.7542254757581245E-002   3.7542254757581245E-002  0.62580860000000005        2.5902339129724279E-005   6.1866907140698433E-016
 chl          17   5.0867552757494876E-007   1.3549413343966172E-005   3.7542254757581245E-002
 chl2c          18   2.5694475239060960E-002   2.5694475239060960E-002  0.47925950000000000        1.4154227938350004E-005   4.6179001979426483E-016
 chl          18   3.4767270721533040E-007   1.3531029685587640E-005   2.5694475239060960E-002
 chl2c          19  0.36927223035663392        3.7570220750293731E-002  0.63367130000000005        2.5902339129724279E-005   1.1461982841792955E-005
 chl          19   5.3643358210988511E-006   1.4526778295562895E-005  0.36927223035663392     
 chl2c          20   3.7020645196759419E-002   3.7020645196759419E-002  0.50678202500000002        2.5902339129724279E-005   6.9566945332783509E-016
 chl          20   5.0160802396228616E-007   1.3549413342104425E-005   3.7020645196759419E-002
 chl2c          21  0.41188546139190235        3.7838475073783531E-002  0.71973185000000006        2.5902339129724279E-005   1.2471598200978620E-005
 chl          21   6.0268127807620728E-006   1.4632254220373314E-005  0.41188546139190235     
 chl2c          22  0.37107286238380083        3.7613353106285476E-002  0.64616892500000001        2.5902339129724279E-005   1.1288334699214149E-005
 chl          22   5.3896590996441544E-006   1.4524530479056233E-005  0.37107286238380083     
 chl2c          23   3.2286562315070731E-002   3.2286562315070731E-002  0.41564179999999995        1.7353347582871009E-005   1.3540674609593761E-018
 chl          23   4.3687043387943699E-007   1.3531029708774987E-005   3.2286562315070731E-002
 chl2c          24   3.7348402796863071E-002   3.7348402796863071E-002  0.57597492500000003        2.5902339129724279E-005   6.4976286021191309E-016
 chl          24   5.0604894716185497E-007   1.3549413342097685E-005   3.7348402796863071E-002
 chl2c          25   4.5426679235459781E-002   4.5426679235459781E-002  0.31406487500000002        1.2452153321278801E-005   1.0319057589329753E-018
 chl          25   6.1466974553300719E-007   1.3531029691758754E-005   4.5426679235459781E-002
 chl2c          26   4.7955660680174553E-002   4.7955660680174553E-002  0.49427735000000000        1.2452153321278801E-005   9.3665151108854202E-019
 chl          26   6.4888946825216611E-007   1.3531029685520001E-005   4.7955660680174553E-002
 chl2c          27   4.5333133499525620E-002   4.5333133499525620E-002  0.30964730000000001        1.2452153321278801E-005   1.0928441678856245E-017
 chl          27   6.1340397511978872E-007   1.3531029685521465E-005   4.5333133499525620E-002
 chl2c          28   3.1209236063453518E-002   3.1209236063453518E-002  0.28776342500000002        1.7353347582871009E-005   1.0861287837751330E-017
 chl          28   4.2229309963703630E-007   1.3531029685521454E-005   3.1209236063453518E-002
 chl2c          29  0.29132391932235197        3.7743217595736761E-002  0.68676297499999994        2.5902339129724279E-005   6.5525817288858630E-006
 chl          29   4.1424826320761248E-006   1.4219507418793300E-005  0.29132391932235197     
 chl2c          30   2.5380056985171612E-002   2.5380056985171612E-002  0.38930277499999999        1.4154227938350004E-005   4.6977865896204222E-016
 chl          30   3.4341830448829266E-007   1.3531029685588807E-005   2.5380056985171612E-002
 chl2c          31   3.7576959810037038E-002   3.7576959810037038E-002  0.63559385000000002        2.5902339129724279E-005   2.8161600856370866E-007
 chl          31   5.1067690315624137E-007   1.3590160186930196E-005   3.7576959810037038E-002
 chl2c          32  0.17548291634976590        2.0893126428578448E-002  0.24722667500000001        2.5902339129724279E-005   7.8316818245122534E-006
 chl          32   2.4646632354605484E-006   1.4045032341199955E-005  0.17548291634976590     
 chl2c          33  0.36813291675425175        3.7458922634011876E-002  0.60343137499999999        2.5902339129724279E-005   1.2227071363963409E-005
 chl          33   5.3555090419304402E-006   1.4547759241821689E-005  0.36813291675425175     
 chl2c          34   2.5350269098008315E-002   2.5350269098008315E-002  0.38241020000000003        1.4154227938350004E-005   4.3294988247651466E-016
 chl          34   3.4301524455517172E-007   1.3531029719211985E-005   2.5350269098008315E-002
 chl2c          35   2.5740370148566064E-002   2.5740370148566064E-002  0.49574644999999995        1.4154227938350004E-005   4.3941196107893942E-016
 chl          35   3.4829371259817675E-007   1.3531029685584353E-005   2.5740370148566064E-002
 chl2c          36   3.7770393924465726E-002   3.7770393924465726E-002  0.69587337500000002        2.5902339129724279E-005   6.1866907140698433E-016
 chl          36   5.1176667944701365E-007   1.3549413343966144E-005   3.7770393924465726E-002
 chl2c          37   2.1353674699533250E-002   2.1353674699533250E-002  0.33194060000000003        2.5902339129724279E-005   4.3020112252477266E-016
 chl          37   2.8893720625566707E-007   1.3531029685583001E-005   2.1353674699533250E-002
 chl2c          38   2.1543295686358745E-002   2.1543295686358745E-002  0.38455722500000000        2.5902339129724279E-005   4.7150230831348327E-016
 chl          38   2.9150297345754292E-007   1.3531029685589061E-005   2.1543295686358745E-002
 chl2c          39   2.5670077108751441E-002   2.5670077108751441E-002  0.47091117500000002        1.4154227938350004E-005   4.5215009882055517E-016
 chl          39   3.4734257538980319E-007   1.3531029685586227E-005   2.5670077108751441E-002
 chl2c          40   3.7687445774703773E-002   3.7687445774703773E-002  0.66875547499999999        2.5902339129724279E-005   6.1866907140698433E-016
 chl          40   5.1064320606656700E-007   1.3549424631194199E-005   3.7687445774703773E-002
 chl2c          41   2.5582381488167241E-002   2.5582381488167241E-002  0.44304987499999998        1.4154227938350004E-005   4.1871123764192784E-016
 chl          41   3.4615707193820243E-007   1.3531073019855964E-005   2.5582381488167241E-002
 chl2c          42   3.7949995630725070E-002   3.7949995630725070E-002  0.76234377499999995        2.5902339129724279E-005   6.8709355838291160E-016
 chl          42   5.1420178838699973E-007   1.3549455799428123E-005   3.7949995630725070E-002
 chl2c          43  0.20037388520071850        2.1185090152268007E-002  0.29539925000000000        2.5902339129724279E-005   8.0671466406989199E-006
 chl          43   2.8257064898168032E-006   1.4102169486738439E-005  0.20037388520071850     
 chl2c          44   3.7536352708156646E-002   3.7536352708156646E-002  0.62417262500000004        2.5902339129724279E-005   6.5220987108609366E-016
 chl          44   5.0859555819759571E-007   1.3549413342098044E-005   3.7536352708156646E-002
 chl2c          45   4.6544927192009838E-002   4.6544927192009838E-002  0.37662252499999999        1.2452153321278801E-005   1.2469489570889641E-018
 chl          45   6.2980079154545396E-007   1.3531029685520038E-005   4.6544927192009838E-002
 chl2c          46  0.16010775859578474        3.7083195475449568E-002  0.51876034999999998        2.5902339129724279E-005   2.9992603669009108E-006
 chl          46   2.2227539291479519E-006   1.3882862071410397E-005  0.16010775859578474     
 chl2c          47   3.7519784612651236E-002   3.7519784612651236E-002  0.61962282499999999        2.5902339129724279E-005   7.0555354954620959E-016
 chl          47   5.0837107022359548E-007   1.3549413342105877E-005   3.7519784612651236E-002
 chl2c          48   3.7823212136301673E-002   3.7823212136301673E-002  0.71424949999999998        2.5902339129724279E-005   6.9735752851190483E-016
 chl          48   5.1248233537979660E-007   1.3549413347893059E-005   3.7823212136301673E-002
 chl2c          49   3.7152990741888416E-002   3.7152990741888416E-002  0.53276120000000005        2.5902339129724279E-005   6.8193320862554884E-016
 chl          49   5.0340122845715017E-007   1.3549413342102408E-005   3.7152990741888416E-002
 chl2c          50  0.23790305951607593        2.1533072915600981E-002  0.38132569999999999        2.5902339129724279E-005   8.1919516253311093E-006
 chl          50   3.3730408208474171E-006   1.4178215394575406E-005  0.23790305951607593     
 chl2c          51   2.0700971146093840E-002   2.0700971146093840E-002  0.22275920000000002        2.5902339129724279E-005   4.7648569648112300E-016
 chl          51   2.8010545509833345E-007   1.3531029685589790E-005   2.0700971146093840E-002
 chl2c          52   3.7581825176985564E-002   3.7581825176985564E-002  0.63698869999999996        2.5902339129724279E-005   6.1866907140698433E-016
 chl          52   5.0921168364228461E-007   1.3549413346590646E-005   3.7581825176985564E-002
 chl2c          53   3.7925801262726190E-002   3.7925801262726190E-002  0.75269794999999995        2.5902339129724279E-005   9.9312821537821406E-009
 chl          53   5.1392973971850221E-007   1.3550926351122260E-005   3.7925801262726190E-002
 chl2c          54   3.7082433371327092E-002   3.7082433371327092E-002  0.51861124999999997        2.5902339129724279E-005   6.5184441260348854E-016
 chl          54   5.0244521747891896E-007   1.3549413342097988E-005   3.7082433371327092E-002
 chl2c          55  0.36555757538196715        3.7357235588660491E-002  0.57808280000000001        2.5902339129724279E-005   1.2877879040483367E-005
 chl          55   5.3228326752656195E-006   1.4560859995046880E-005  0.36555757538196715     
 chl2c          56   3.7507394187257688E-002   3.7507394187257688E-002  0.61626080000000005        2.5902339129724279E-005   6.1866907140698433E-016
 chl          56   5.0820318729822842E-007   1.3549413343966168E-005   3.7507394187257688E-002
 chl2c          57   3.7727617852646313E-002   3.7727617852646313E-002  0.68163462500000005        2.5902339129724279E-005   7.1671901880757592E-016
 chl          57   5.1119360900837787E-007   1.3549586168015150E-005   3.7727617852646313E-002
 chl2c          58  0.38866616984244146        3.7765358178394853E-002  0.69416802499999997        2.5902339129724279E-005   1.1437641589890854E-005
 chl          58   5.6585538285650533E-006   1.4558904961702567E-005  0.38866616984244146     
 chl2c          59  0.31821753637016398        3.7173699120809672E-002  0.53705127500000005        2.5902339129724279E-005   1.0114270642418082E-005
 chl          59   4.5810183078913432E-006   1.4395870070977202E-005  0.31821753637016398     
 chl2c          60  0.37830430709180635        3.7607757740906807E-002  0.64452155000000000        2.5902339129724279E-005   1.1861825665321352E-005
 chl          60   5.5061854298955394E-006   1.4554910760133922E-005  0.37830430709180635     
 chl2c          61   3.7805373434125003E-002   3.7805373434125003E-002  0.70794139999999994        2.5902339129724279E-005   6.9084963430846741E-016
 chl          61   5.1224063121154664E-007   1.3549413342103716E-005   3.7805373434125003E-002
 chl2c          62   3.7956103087269030E-002   3.7956103087269030E-002  0.76481592499999995        2.5902339129724279E-005   6.4576620392899257E-016
 chl          62   5.1428292982956735E-007   1.3549413348549592E-005   3.7956103087269030E-002
 chl2c          63  0.39886573738781428        3.7855601011927406E-002  0.72597904999999996        2.5902339129724279E-005   1.1464670846732674E-005
 chl          63   5.8139917702199907E-006   1.4576312842251196E-005  0.39886573738781428     
 chl2c          64   2.5708982294816416E-002   2.5708982294816416E-002  0.48435739999999999        1.4154227938350004E-005   4.1561126814508798E-016
 chl          64   3.4786900261723374E-007   1.3531029685580864E-005   2.5708982294816416E-002
 chl2c          65  0.35440569147223094        3.7953597170552002E-002  0.76379975000000000        2.5902339129724279E-005   8.5634280578013961E-006
 chl          65   5.1014486129149681E-006   1.4394375529701917E-005  0.35440569147223094     
 chl2c          66   3.1840477731474713E-002   3.1840477731474713E-002  0.35213202499999996        1.7353347582871009E-005   1.0257928035065220E-018
 chl          66   4.3083444938572318E-007   1.3531029685520011E-005   3.1840477731474713E-002
 chl2c          67   3.7937587124568600E-002   3.7937587124568600E-002  0.75736760000000003        2.5902339129724279E-005   6.8069209740026130E-016
 chl          67   5.1403204915279540E-007   1.3549413342102225E-005   3.7937587124568600E-002
 chl2c          68  0.39767220980902024        3.7855407263856986E-002  0.72590779999999999        2.5902339129724279E-005   1.1390165272332720E-005
 chl          68   5.7948597154008319E-006   1.4571950396493080E-005  0.39767220980902024     
 chl2c          69  0.10169218082440114        2.1732330561541505E-002  0.45524217500000003        2.5902339129724279E-005   1.6958530064409096E-006
 chl          69   1.3960662706500204E-006   1.3728354130399699E-005  0.10169218082440114     
 chl2c          70   3.2658010878182209E-002   3.2658010878182209E-002  0.48694062500000002        1.7353347582871009E-005   1.3393024917026006E-017
 chl          70   4.4189651466277799E-007   1.3531029685521820E-005   3.2658010878182209E-002
 chl2c          71   4.3481058864416305E-002   4.3481058864416305E-002  0.23986107500000001        1.2452153321278801E-005   1.1599981975958218E-008
 chl          71   5.8840853274950058E-007   1.3532525382702624E-005   4.3481058864416305E-002
 chl2c          72   3.7549776402781669E-002   3.7549776402781669E-002  0.62790522500000001        2.5902339129724279E-005   6.1866907140698433E-016
 chl          72   5.0877744145480049E-007   1.3549413343966290E-005   3.7549776402781669E-002
 chl2c          73   3.1852614277819484E-002   3.1852614277819484E-002  0.35362212500000001        1.7353347582871009E-005   1.2877502941832866E-018
 chl          73   4.3099866935459501E-007   1.3531029685520043E-005   3.1852614277819484E-002
 chl2c          74  0.38924251002521726        3.7616827685877569E-002  0.64719590000000005        2.5902339129724279E-005   1.2648055761145797E-005
 chl          74   5.6822549873775820E-006   1.4598238478652947E-005  0.38924251002521726     
 chl2c          75   3.7826830779512356E-002   3.7826830779512356E-002  0.71554212500000003        2.5902339129724279E-005   6.1866907140698433E-016
 chl          75   5.1253136572387417E-007   1.3549413343966148E-005   3.7826830779512356E-002
 chl2c          76  0.32239330535546029        3.7257729557919804E-002  0.55513977500000000        2.5902339129724279E-005   9.9589659429982853E-006
 chl          76   4.6421120218442990E-006   1.4398909483328316E-005  0.32239330535546029     
 chl2c          77  0.32992609842524223        3.7138172437479272E-002  0.52973029999999999        2.5902339129724279E-005   1.1328589993991859E-005
 chl          77   4.7681246370575970E-006   1.4452098999794658E-005  0.32992609842524223     
 chl2c          78   4.7515248899399322E-002   4.7515248899399322E-002  0.45117492500000000        1.2452153321278801E-005   1.3818776231918743E-017
 chl          78   6.4293024357158719E-007   1.3531029689706939E-005   4.7515248899399322E-002
 prod   4.6632047633122618E-009   18.464346572735121        10.000000000000000     
 chl2c           1  0.37752306772995947        3.7477407714772232E-002  0.60826437499999997        2.0931518729370259E-005   1.0415527522733562E-005
 chl           1   3.7168661443407139E-006   9.8454014126611501E-006  0.37752306772995947     
 chl2c           2   3.2640259920490348E-002   3.2640259920490348E-002  0.48302390000000001        1.4104283596088562E-005   7.5345185012649418E-019
 chl           2   3.0218556874707072E-007   9.2580625731282789E-006   3.2640259920490348E-002
 chl2c           3   3.7922212503796585E-002   3.7922212503796585E-002  0.75128689999999998        2.0931518729370259E-005   6.3962931273824578E-016
 chl           3   3.5176422397754065E-007   9.2759414800052543E-006   3.7922212503796585E-002
 chl2c           4  0.44938167187273531        3.7976509103863923E-002  0.77318742499999993        2.0931518729370259E-005   1.1230169778965944E-005
 chl           4   4.4636550195025105E-006   9.9328817770890652E-006  0.44938167187273531     
 chl2c           5   2.5710500362372445E-002   2.5710500362372445E-002  0.48489679999999996        1.1532770895215942E-005   4.6656336730820722E-016
 chl           5   2.3802942160797906E-007   9.2580625912803051E-006   2.5710500362372445E-002
 chl2c           6   3.1261039902252048E-002   3.1261039902252048E-002  0.29222855000000003        1.4104283596088562E-005   1.1455748451361924E-017
 chl           6   2.8941666526215149E-007   9.2580626289818940E-006   3.1261039902252048E-002
 chl2c           7   4.3064391842467263E-002   4.3064391842467263E-002  0.22770740000000000        1.0190151827437857E-005   9.7906843619242015E-009
 chl           7   3.9872997977162992E-007   9.2589251284498279E-006   4.3064391842467263E-002
 chl2c           8   4.7969800906495587E-002   4.7969800906495587E-002  0.49578364999999996        1.0190151827437857E-005   1.3721538860217859E-008
 chl           8   4.4416540880999617E-007   9.2592714669752103E-006   4.7969800906495587E-002
 chl2c           9  0.24004503575987859        2.4803669054600401E-002  0.28700202499999999        1.1532770895215942E-005   8.4602094618530039E-006
 chl           9   2.2800046692647178E-006   9.4982371205770233E-006  0.24004503575987859     
 chl2c          10   2.5387016219684602E-002   2.5387016219684602E-002  0.39094662499999999        1.1532770895215942E-005   4.8145114593875834E-016
 chl          10   2.3503559147179297E-007   9.2581022298142662E-006   2.5387016219684602E-002
 chl2c          11   2.1820572217820047E-002   2.1820572217820047E-002  0.49737575000000001        2.0931518729370259E-005   4.8389900147742290E-016
 chl          11   2.0201622297399163E-007   9.2580625731259479E-006   2.1820572217820047E-002
 chl2c          12   4.5290941298723353E-002   4.5290941298723353E-002  0.30768942500000002        1.0190151827437857E-005   7.7352407423021092E-019
 chl          12   4.1930636853715788E-007   9.2580625730774366E-006   4.5290941298723353E-002
 chl2c          13   3.7935816987997487E-002   3.7935816987997487E-002  0.75666275000000005        2.0931518729370259E-005   7.4598764838094794E-016
 chl          13   3.5189041836739169E-007   9.2759414797558285E-006   3.7935816987997487E-002
 chl2c          14   4.6856526101924839E-002   4.6856526101924839E-002  0.39804095000000000        1.0190151827437857E-005   8.7606880785602351E-018
 chl          14   4.3380065060869382E-007   9.2580625730782362E-006   4.6856526101924839E-002
 chl2c          15   2.0954299823745293E-002   2.0954299823745293E-002  0.25607262500000000        2.0931518729370259E-005   4.9093514480499017E-016
 chl          15   1.9399788815985108E-007   9.2581422329374980E-006   2.0954299823745293E-002
 chl2c          16   3.8799584597471681E-002   3.7823443882273475E-002  0.71433214999999994        2.0931518729370259E-005   4.2938980407903928E-007
 chl          16   3.6132675481440317E-007   9.3126449306869256E-006   3.8799584597471681E-002
 chl2c          17   3.7542254757581245E-002   3.7542254757581245E-002  0.62580860000000005        2.0931518729370259E-005   6.3962931273824578E-016
 chl          17   3.4823975815877248E-007   9.2759414800052543E-006   3.7542254757581245E-002
 chl2c          18   2.5694475239060960E-002   2.5694475239060960E-002  0.47925950000000000        1.1532770895215942E-005   4.8685649090708476E-016
 chl          18   2.3788105954686929E-007   9.2580625731262443E-006   2.5694475239060960E-002
 chl2c          19  0.39865903100700495        3.7570220750293731E-002  0.63367130000000005        2.0931518729370259E-005   1.1249827258617574E-005
 chl          19   3.9398307161141868E-006   9.8827078021091135E-006  0.39865903100700495     
 chl2c          20   3.7020645196759419E-002   3.7020645196759419E-002  0.50678202500000002        2.0931518729370259E-005   7.6320486801570901E-016
 chl          20   3.4340133836514945E-007   9.2759414791401016E-006   3.7020645196759419E-002
 chl2c          21  0.45833596611318517        3.7838475073783531E-002  0.71973185000000006        2.0931518729370259E-005   1.3207683712922903E-005
 chl          21   4.5744551542291128E-006   9.9805720965381550E-006  0.45833596611318517     
 chl2c          22  0.39320098955722765        3.7613353106285476E-002  0.64616892500000001        2.0931518729370259E-005   1.0511530123049235E-005
 chl          22   3.8782472679660259E-006   9.8632693481601073E-006  0.39320098955722765     
 chl2c          23   3.2286562315070731E-002   3.2286562315070731E-002  0.41564179999999995        1.4104283596088562E-005   8.4295947612306735E-010
 chl          23   2.9891341703539452E-007   9.2581369957701444E-006   3.2286562315070731E-002
 chl2c          24   3.7348402796863071E-002   3.7348402796863071E-002  0.57597492500000003        2.0931518729370259E-005   7.2486429510491724E-016
 chl          24   3.4644159868291025E-007   9.2759414791362442E-006   3.7348402796863071E-002
 chl2c          25   4.5426679235459781E-002   4.5426679235459781E-002  0.31406487500000002        1.0190151827437857E-005   2.2509478804182170E-010
 chl          25   4.2056394553226578E-007   9.2580825323453583E-006   4.5426679235459781E-002
 chl2c          26   4.7955660680174553E-002   4.7955660680174553E-002  0.49427735000000000        1.0190151827437857E-005   7.4345510530912718E-019
 chl          26   4.4397650731032510E-007   9.2580625730774332E-006   4.7955660680174553E-002
 chl2c          27   4.5333133499525620E-002   4.5333133499525620E-002  0.30964730000000001        1.0190151827437857E-005   8.6854551700086164E-018
 chl          27   4.1969698657231714E-007   9.2580625730782311E-006   4.5333133499525620E-002
 chl2c          28   3.1209236063453518E-002   3.1209236063453518E-002  0.28776342500000002        1.4104283596088562E-005   8.6319012881410989E-018
 chl          28   2.8893706033342226E-007   9.2580625730782260E-006   3.1209236063453518E-002
 chl2c          29  0.21497170701496260        3.7743217595736761E-002  0.68676297499999994        2.0931518729370259E-005   3.2749828092835877E-006
 chl          29   2.0475328492607772E-006   9.5246620017687419E-006  0.21497170701496260     
 chl2c          30   2.5380056985171612E-002   2.5380056985171612E-002  0.38930277499999999        1.1532770895215942E-005   4.9289238375383206E-016
 chl          30   2.3497015567824395E-007   9.2580625731268491E-006   2.5380056985171612E-002
 chl2c          31   3.7576959810037038E-002   3.7576959810037038E-002  0.63559385000000002        2.0931518729370259E-005   7.6896301325779421E-016
 chl          31   3.4856427946441980E-007   9.2760106519132544E-006   3.7576959810037038E-002
 chl2c          32  0.17155253398346240        2.0893126428578448E-002  0.24722667500000001        2.0931518729370259E-005   5.8656441252688738E-006
 chl          32   1.6350953065669686E-006   9.5311638283617034E-006  0.17155253398346240     
 chl2c          33  0.40508318661894188        3.7458922634011876E-002  0.60343137499999999        2.0931518729370259E-005   1.2897769514889129E-005
 chl          33   4.0171331955435583E-006   9.9168104928591853E-006  0.40508318661894188     
 chl2c          34   2.5350269098008315E-002   2.5350269098008315E-002  0.38241020000000003        1.1532770895215942E-005   4.6457989439649879E-016
 chl          34   2.3469437755509752E-007   9.2580625731320804E-006   2.5350269098008315E-002
 chl2c          35   2.5740370148566064E-002   2.5740370148566064E-002  0.49574644999999995        1.1532770895215942E-005   4.6963911979968212E-016
 chl          35   2.3830595749081106E-007   9.2580625731245181E-006   2.5740370148566064E-002
 chl2c          36   3.7770393924465726E-002   3.7770393924465726E-002  0.69587337500000002        2.0931518729370259E-005   6.3962931273824578E-016
 chl          36   3.5035596372009007E-007   9.2759414800052543E-006   3.7770393924465726E-002
 chl2c          37   2.1353674699533250E-002   2.1353674699533250E-002  0.33194060000000003        2.0931518729370259E-005   4.6241571070904663E-016
 chl          37   1.9769365653440928E-007   9.2580625731237947E-006   2.1353674699533250E-002
 chl2c          38   2.1543295686358745E-002   2.1543295686358745E-002  0.38455722500000000        2.0931518729370259E-005   4.9418729619098891E-016
 chl          38   1.9944917949568584E-007   9.2580625731269813E-006   2.1543295686358745E-002
 chl2c          39   2.5670077108751441E-002   2.5670077108751441E-002  0.47091117500000002        1.1532770895215942E-005   4.7949640427645259E-016
 chl          39   2.3765518012977755E-007   9.2580625731255074E-006   2.5670077108751441E-002
 chl2c          40   3.7687445774703773E-002   3.7687445774703773E-002  0.66875547499999999        2.0931518729370259E-005   4.0989785502600220E-007
 chl          40   3.5091652025506803E-007   9.3112311816739522E-006   3.7687445774703773E-002
 chl2c          41  0.19383490254064512        2.5582381488167241E-002  0.44304987499999998        1.1532770895215942E-005   1.9870744400649459E-006
 chl          41   1.8208184911852633E-006   9.3936564948794865E-006  0.19383490254064512     
 chl2c          42  0.12915910792607010        3.7949995630725070E-002  0.76234377499999995        2.0931518729370259E-005   1.6274822117591190E-006
 chl          42   1.2152513255105749E-006   9.4089479636711129E-006  0.12915910792607010     
 chl2c          43  0.21726889649679446        2.1185090152268007E-002  0.29539925000000000        2.0931518729370259E-005   8.5972172731014838E-006
 chl          43   2.0897908504604623E-006   9.6184538337326844E-006  0.21726889649679446     
 chl2c          44   3.7536352708156646E-002   3.7536352708156646E-002  0.62417262500000004        2.0931518729370259E-005   7.2694052405946524E-016
 chl          44   3.4818501106108617E-007   9.2759414791364526E-006   3.7536352708156646E-002
 chl2c          45   4.6544927192009838E-002   4.6544927192009838E-002  0.37662252499999999        1.0190151827437857E-005   9.8986486265927477E-019
 chl          45   4.3091584840296144E-007   9.2580625730774552E-006   4.6544927192009838E-002
 chl2c          46   3.7083195475449568E-002   3.7083195475449568E-002  0.51876034999999998        2.0931518729370259E-005   1.0628333024909571E-007
 chl          46   3.4439454730208075E-007   9.2870784970535391E-006   3.7083195475449568E-002
 chl2c          47   3.7519784612651236E-002   3.7519784612651236E-002  0.61962282499999999        2.0931518729370259E-005   7.7129467221014588E-016
 chl          47   3.4803132637692465E-007   9.2759414791409147E-006   3.7519784612651236E-002
 chl2c          48   3.7823212136301673E-002   3.7823212136301673E-002  0.71424949999999998        2.0931518729370259E-005   7.6459057343180789E-016
 chl          48   3.5084672438305490E-007   9.2759632132439100E-006   3.7823212136301673E-002
 chl2c          49   3.7152990741888416E-002   3.7152990741888416E-002  0.53276120000000005        2.0931518729370259E-005   7.5186615536058529E-016
 chl          49   3.4462896789674843E-007   9.2759414791389581E-006   3.7152990741888416E-002
 chl2c          50  0.25202756611701221        2.1533072915600981E-002  0.38132569999999999        2.0931518729370259E-005   7.7789791883707818E-006
 chl          50   2.4318525705457743E-006   9.6491530986602687E-006  0.25202756611701221     
 chl2c          51   2.0700971146093840E-002   2.0700971146093840E-002  0.22275920000000002        2.0931518729370259E-005   4.9791655894121430E-016
 chl          51   1.9165088619504062E-007   9.2580625731273523E-006   2.0700971146093840E-002
 chl2c          52   3.7581825176985564E-002   3.7581825176985564E-002  0.63698869999999996        2.0931518729370259E-005   6.3962931273824578E-016
 chl          52   3.4860718123550151E-007   9.2759513300323237E-006   3.7581825176985564E-002
 chl2c          53  0.16921428927005328        3.7925801262726190E-002  0.75269794999999995        2.0931518729370259E-005   2.2845455065278358E-006
 chl          53   1.6003966675922199E-006   9.4578104159874300E-006  0.16921428927005328     
 chl2c          54   3.7082433371327092E-002   3.7082433371327092E-002  0.51861124999999997        2.0931518729370259E-005   7.2663067793172544E-016
 chl          54   3.4397448185640566E-007   9.2759414791364221E-006   3.7082433371327092E-002
 chl2c          55  0.38849411702504766        3.7357235588660491E-002  0.57808280000000001        2.0931518729370259E-005   1.2397463254387728E-005
 chl          55   3.8423960142467034E-006   9.8904870006023021E-006  0.38849411702504766     
 chl2c          56   3.7507394187257688E-002   3.7507394187257688E-002  0.61626080000000005        2.0931518729370259E-005   6.3962931273824578E-016
 chl          56   3.4791639354849153E-007   9.2759414800052543E-006   3.7507394187257688E-002
 chl2c          57   3.7727617852646313E-002   3.7727617852646313E-002  0.68163462500000005        2.0931518729370259E-005   7.8036457245672554E-016
 chl          57   3.4995918037576000E-007   9.2759416123913302E-006   3.7727617852646313E-002
 chl2c          58  0.42178206146712294        3.7765358178394853E-002  0.69416802499999997        2.0931518729370259E-005   1.1249642758019691E-005
 chl          58   4.1783188412045249E-006   9.9063455346362951E-006  0.42178206146712294     
 chl2c          59  0.36975829080162620        3.7173699120809672E-002  0.53705127500000005        2.0931518729370259E-005   1.2423005837541452E-005
 chl          59   3.6491362470974476E-006   9.8689774857683828E-006  0.36975829080162620     
 chl2c          60  0.42066899515292600        3.7607757740906807E-002  0.64452155000000000        2.0931518729370259E-005   1.2676128600989736E-005
 chl          60   4.1775598434973326E-006   9.9307528998629006E-006  0.42066899515292600     
 chl2c          61   3.7805373434125003E-002   3.7805373434125003E-002  0.70794139999999994        2.0931518729370259E-005   7.5923909659139963E-016
 chl          61   3.5068043157196629E-007   9.2759414791397018E-006   3.7805373434125003E-002
 chl2c          62   3.7956103087269030E-002   3.7956103087269030E-002  0.76481592499999995        2.0931518729370259E-005   7.2146520623244690E-016
 chl          62   3.5207951069132837E-007   9.2759657091726158E-006   3.7956103087269030E-002
 chl2c          63  0.43301648564474621        3.7855601011927406E-002  0.72597904999999996        2.0931518729370259E-005   1.1230190818685921E-005
 chl          63   4.2942608363422881E-006   9.9170839418464311E-006  0.43301648564474621     
 chl2c          64   2.5708982294816416E-002   2.5708982294816416E-002  0.48435739999999999        1.1532770895215942E-005   4.5080520025289924E-016
 chl          64   2.3801536677671209E-007   9.2580625731226258E-006   2.5708982294816416E-002
 chl2c          65  0.42576735308445179        3.7953597170552002E-002  0.76379975000000000        2.0931518729370259E-005   1.0068488759205482E-005
 chl          65   4.2084995511812788E-006   9.8845050488089322E-006  0.42576735308445179     
 chl2c          66   3.1840477731474713E-002   3.1840477731474713E-002  0.35213202499999996        1.4104283596088562E-005   8.1423707073826970E-019
 chl          66   2.9478113519467166E-007   9.2580625730774383E-006   3.1840477731474713E-002
 chl2c          67   3.7937587124568600E-002   3.7937587124568600E-002  0.75736760000000003        2.0931518729370259E-005   7.5083611337062170E-016
 chl          67   3.5190683802723004E-007   9.2759414791388547E-006   3.7937587124568600E-002
 chl2c          68  0.43324907739545737        3.7855407263856986E-002  0.72590779999999999        2.0931518729370259E-005   1.1246784711030190E-005
 chl          68   4.2968108911736891E-006   9.9176457962810229E-006  0.43324907739545737     
 chl2c          69   2.1732330561541505E-002   2.1732330561541505E-002  0.45524217500000003        2.0931518729370259E-005   4.6702300459980060E-016
 chl          69   2.0120064583651525E-007   9.2581255961828969E-006   2.1732330561541505E-002
 chl2c          70   3.2658010878182209E-002   3.2658010878182209E-002  0.48694062500000002        1.4104283596088562E-005   1.0652478919191174E-017
 chl          70   3.0234990822248674E-007   9.2580625730784242E-006   3.2658010878182209E-002
 chl2c          71   4.3481058864416305E-002   4.3481058864416305E-002  0.23986107500000001        1.0190151827437857E-005   1.3183054976093983E-008
 chl          71   4.0260086176026164E-007   9.2592239534842388E-006   4.3481058864416305E-002
 chl2c          72   3.7549776402781669E-002   3.7549776402781669E-002  0.62790522500000001        2.0931518729370259E-005   6.3962931273824578E-016
 chl          72   3.4830952851875321E-007   9.2759414805183936E-006   3.7549776402781669E-002
 chl2c          73   3.1852614277819484E-002   3.1852614277819484E-002  0.35362212500000001        1.4104283596088562E-005   1.0222698056090810E-018
 chl          73   2.9489349610015322E-007   9.2580625730774569E-006   3.1852614277819484E-002
 chl2c          74  0.42898550970347471        3.7616827685877569E-002  0.64719590000000005        2.0931518729370259E-005   1.3315997317984730E-005
 chl          74   4.2685147477500961E-006   9.9502539158038182E-006  0.42898550970347471     
 chl2c          75   3.7826830779512356E-002   3.7826830779512356E-002  0.71554212500000003        2.0931518729370259E-005   6.3962931273824578E-016
 chl          75   3.5087946868481815E-007   9.2759414800052543E-006   3.7826830779512356E-002
 chl2c          76  0.31913771169208383        3.7257729557919804E-002  0.55513977500000000        2.0931518729370259E-005   7.8566140045175827E-006
 chl          76   3.1074314080202404E-006   9.7369608610166640E-006  0.31913771169208383     
 chl2c          77  0.36687244372873873        3.7138172437479272E-002  0.52973029999999999        2.0931518729370259E-005   1.2489122876863732E-005
 chl          77   3.6197704883256373E-006   9.8665641156795466E-006  0.36687244372873873     
 chl2c          78   4.7515248899399322E-002   4.7515248899399322E-002  0.45117492500000000        1.0190151827437857E-005   1.0992586960732438E-017
 chl          78   4.3989914748608409E-007   9.2580625730794644E-006   4.7515248899399322E-002
 prod   3.7000596699369929E-009   14.884424115271658        10.000000000000000     
 chl2c           1  0.41337647923384269        3.7477407714772232E-002  0.60826437499999997        1.6938812295156837E-005   1.0927133189268554E-005
 chl           1   2.1866709958054416E-006   5.2897808793046137E-006  0.41337647923384269     
 chl2c           2   3.2640259920490348E-002   3.2640259920490348E-002  0.48302390000000001        1.1472928915517767E-005   5.5753671632721543E-019
 chl           2   1.6272806971748721E-007   4.9855016508410993E-006   3.2640259920490348E-002
 chl2c           3   3.7922212503796585E-002   3.7922212503796585E-002  0.75128689999999998        1.6938812295156837E-005   6.6596863877148818E-016
 chl           3   1.8973916640468124E-007   5.0033780699289497E-006   3.7922212503796585E-002
 chl2c           4  0.48499935610008921        3.7976509103863923E-002  0.77318742499999993        1.6938812295156837E-005   1.1020540808262830E-005
 chl           4   2.5825231872547991E-006   5.3247971461674362E-006  0.48499935610008921     
 chl2c           5   2.5710500362372445E-002   2.5710500362372445E-002  0.48489679999999996        9.4101699694425848E-006   4.8968754801420461E-016
 chl           5   1.2817974200135021E-007   4.9855016508718923E-006   2.5710500362372445E-002
 chl2c           6   3.1261039902252048E-002   3.1261039902252048E-002  0.29222855000000003        1.1472928915517767E-005   3.2378430020337317E-009
 chl           6   1.5585743095967548E-007   4.9856764665223918E-006   3.1261039902252048E-002
 chl2c           7   4.3064391842467263E-002   4.3064391842467263E-002  0.22770740000000000        8.3433817002004043E-006   4.3516102252160729E-009
 chl           7   2.1470646177872103E-007   4.9857075089817401E-006   4.3064391842467263E-002
 chl2c           8   4.7969800906495587E-002   4.7969800906495587E-002  0.49578364999999996        8.3433817002004043E-006   9.7013813013990993E-009
 chl           8   2.3917554296274313E-007   4.9859607178473064E-006   4.7969800906495587E-002
 chl2c           9  0.24672562027418185        2.4803669054600401E-002  0.28700202499999999        9.4101699694425848E-006   8.2721040088424930E-006
 chl           9   1.2573868333780223E-006   5.0962961689212105E-006  0.24672562027418185     
 chl2c          10   2.5387016219684602E-002   2.5387016219684602E-002  0.39094662499999999        9.4101699694425848E-006   5.0094267423626582E-016
 chl          10   1.2656701154213490E-007   4.9855016614357891E-006   2.5387016219684602E-002
 chl2c          11   2.1820572217820047E-002   2.1820572217820047E-002  0.49737575000000001        1.6938812295156837E-005   5.0277482564576815E-016
 chl          11   1.0878649881483159E-007   4.9855016508682441E-006   2.1820572217820047E-002
 chl2c          12   4.5290941298723353E-002   4.5290941298723353E-002  0.30768942500000002        8.3433817002004043E-006   5.7239511977819899E-019
 chl          12   2.2579806261293205E-007   4.9855016508410874E-006   4.5290941298723353E-002
 chl2c          13   3.7935816987997487E-002   3.7935816987997487E-002  0.75666275000000005        1.6938812295156837E-005   8.0190069942521834E-016
 chl          13   1.8980732281844816E-007   5.0033803905818426E-006   3.7935816987997487E-002
 chl2c          14   4.6856526101924839E-002   4.6856526101924839E-002  0.39804095000000000        8.3433817002004043E-006   6.4821833864442797E-018
 chl          14   2.3360328823383979E-007   4.9855016508414076E-006   4.6856526101924839E-002
 chl2c          15   2.0954299823745293E-002   2.0954299823745293E-002  0.25607262500000000        1.6938812295156837E-005   5.0801275071680008E-016
 chl          15   1.0446769680875139E-007   4.9855016720897153E-006   2.0954299823745293E-002
 chl2c          16  0.21571714437813497        3.7823443882273475E-002  0.71433214999999994        1.6938812295156837E-005   2.6174143250383794E-006
 chl          16   1.1024844304587982E-006   5.1107872470545543E-006  0.21571714437813497     
 chl2c          17   3.7542254757581245E-002   3.7542254757581245E-002  0.62580860000000005        1.6938812295156837E-005   6.6596863877148818E-016
 chl          17   1.8783809414976777E-007   5.0033780699289497E-006   3.7542254757581245E-002
 chl2c          18   2.5694475239060960E-002   2.5694475239060960E-002  0.47925950000000000        9.4101699694425848E-006   5.0498158975858251E-016
 chl          18   1.2809984872253469E-007   4.9855016508683627E-006   2.5694475239060960E-002
 chl2c          19  0.42798640820806039        3.7570220750293731E-002  0.63367130000000005        1.6938812295156837E-005   1.1167207400138154E-005
 chl          19   2.2678930097821200E-006   5.2989837207157554E-006  0.42798640820806039     
 chl2c          20   3.7020645196759419E-002   3.7020645196759419E-002  0.50678202500000002        1.6938812295156837E-005   8.1558935794940136E-016
 chl          20   1.8522828430295014E-007   5.0033780696821565E-006   3.7020645196759419E-002
 chl2c          21  0.49624771316171762        3.7838475073783531E-002  0.71973185000000006        1.6938812295156837E-005   1.3535537243627586E-005
 chl          21   2.6557514572540019E-006   5.3516648778763110E-006  0.49624771316171762     
 chl2c          22  0.40717021527270125        3.7613353106285476E-002  0.64616892500000001        1.6938812295156837E-005   9.3235106993990691E-006
 chl          22   2.1470276729628231E-006   5.2730469774780965E-006  0.40717021527270125     
 chl2c          23   3.2286562315070731E-002   3.2286562315070731E-002  0.41564179999999995        1.1472928915517767E-005   4.3462499306492841E-009
 chl          23   1.6097135256778842E-007   4.9857073973047345E-006   3.2286562315070731E-002
 chl2c          24   3.7348402796863071E-002   3.7348402796863071E-002  0.57597492500000003        1.6938812295156837E-005   7.8488424789943101E-016
 chl          24   1.8686817949140835E-007   5.0033780696802270E-006   3.7348402796863071E-002
 chl2c          25   4.5426679235459781E-002   4.5426679235459781E-002  0.31406487500000002        8.3433817002004043E-006   2.8856984448241043E-009
 chl          25   2.2648099003272048E-007   4.9856382602567794E-006   4.5426679235459781E-002
 chl2c          26   4.7955660680174553E-002   4.7955660680174553E-002  0.49427735000000000        8.3433817002004043E-006   5.5013676119996973E-019
 chl          26   2.3908302548818528E-007   4.9855016508410874E-006   4.7955660680174553E-002
 chl2c          27   4.5333133499525620E-002   4.5333133499525620E-002  0.30964730000000001        8.3433817002004043E-006   6.4263244559955890E-018
 chl          27   2.2600841189969879E-007   4.9855016508414051E-006   4.5333133499525620E-002
 chl2c          28   3.1209236063453518E-002   3.1209236063453518E-002  0.28776342500000002        1.1472928915517767E-005   6.3865638077811015E-018
 chl          28   1.5559369791584656E-007   4.9855016508414025E-006   3.1209236063453518E-002
 chl2c          29   5.3836725058555863E-002   3.7743217595736761E-002  0.68676297499999994        1.6938812295156837E-005   4.9474949388601496E-007
 chl          29   2.7059495759537308E-007   5.0262150474617231E-006   5.3836725058555863E-002
 chl2c          30   2.5380056985171612E-002   2.5380056985171612E-002  0.38930277499999999        9.4101699694425848E-006   5.0946235347789788E-016
 chl          30   1.2653231599871237E-007   4.9855016508686058E-006   2.5380056985171612E-002
 chl2c          31   3.7576959810037038E-002   3.7576959810037038E-002  0.63559385000000002        1.6938812295156837E-005   8.2013167387443854E-016
 chl          31   1.8801173864584235E-007   5.0033781230918859E-006   3.7576959810037038E-002
 chl2c          32  0.14861268455430873        2.0893126428578448E-002  0.24722667500000001        1.6938812295156837E-005   3.1554814698009198E-006
 chl          32   7.5496258330304994E-007   5.0800682698599517E-006  0.14861268455430873     
 chl2c          33  0.43547651068437099        3.7458922634011876E-002  0.60343137499999999        1.6938812295156837E-005   1.3251132454657264E-005
 chl          33   2.3156151138270908E-006   5.3174282814657374E-006  0.43547651068437099     
 chl2c          34   2.5350269098008315E-002   2.5350269098008315E-002  0.38241020000000003        9.4101699694425848E-006   4.8817331863414404E-016
 chl          34   1.2638380843805476E-007   4.9855016508674581E-006   2.5350269098008315E-002
 chl2c          35   2.5740370148566064E-002   2.5740370148566064E-002  0.49574644999999995        9.4101699694425848E-006   4.9202874422651957E-016
 chl          35   1.2832865786962084E-007   4.9855016508676631E-006   2.5740370148566064E-002
 chl2c          36   3.7770393924465726E-002   3.7770393924465726E-002  0.69587337500000002        1.6938812295156837E-005   6.6596863877148818E-016
 chl          36   1.8897956065424945E-007   5.0033780699289497E-006   3.7770393924465726E-002
 chl2c          37   2.1353674699533250E-002   2.1353674699533250E-002  0.33194060000000003        1.6938812295156837E-005   4.8651712809444188E-016
 chl          37   1.0645878046660774E-007   4.9855016508673666E-006   2.1353674699533250E-002
 chl2c          38   2.1543295686358745E-002   2.1543295686358745E-002  0.38455722500000000        1.6938812295156837E-005   5.1041965264303683E-016
 chl          38   1.0740413620949316E-007   4.9855016508686575E-006   2.1543295686358745E-002
 chl2c          39   2.5670077108751441E-002   2.5670077108751441E-002  0.47091117500000002        9.4101699694425848E-006   4.9947590444307044E-016
 chl          39   1.2797821180359086E-007   4.9855016508680663E-006   2.5670077108751441E-002
 chl2c          40  0.20990264031904018        3.7687445774703773E-002  0.66875547499999999        1.6938812295156837E-005   2.5909843683754794E-006
 chl          40   1.0723613804970444E-006   5.1088513172922245E-006  0.20990264031904018     
 chl2c          41  0.30331436281639690        2.5582381488167241E-002  0.44304987499999998        9.4101699694425848E-006   4.5248717602649304E-006
 chl          41   1.5472691343482123E-006   5.1012062863795526E-006  0.30331436281639690     
 chl2c          42  0.31885159457853879        3.7949995630725070E-002  0.76234377499999995        1.6938812295156837E-005   4.6420139857756348E-006
 chl          42   1.6511381184094953E-006   5.1783906572334572E-006  0.31885159457853879     
 chl2c          43  0.22859122098973578        2.1185090152268007E-002  0.29539925000000000        1.6938812295156837E-005   8.5603837958362926E-006
 chl          43   1.1787257210156033E-006   5.1564785205313307E-006  0.22859122098973578     
 chl2c          44   3.7536352708156646E-002   3.7536352708156646E-002  0.62417262500000004        1.6938812295156837E-005   7.8656779599109159E-016
 chl          44   1.8780856395578175E-007   5.0033780696804607E-006   3.7536352708156646E-002
 chl2c          45   4.6544927192009838E-002   4.6544927192009838E-002  0.37662252499999999        8.3433817002004043E-006   7.3255862549088298E-019
 chl          45   2.3204981135404362E-007   4.9855016508410950E-006   4.6544927192009838E-002
 chl2c          46   3.7083195475449568E-002   3.7083195475449568E-002  0.51876034999999998        1.6938812295156837E-005   8.2001049136185337E-016
 chl          46   1.8554193333861971E-007   5.0033965778773101E-006   3.7083195475449568E-002
 chl2c          47   3.7519784612651236E-002   3.7519784612651236E-002  0.61962282499999999        1.6938812295156837E-005   8.2196595503729218E-016
 chl          47   1.8772566751014029E-007   5.0033780696822387E-006   3.7519784612651236E-002
 chl2c          48  0.14741498897078129        3.7823212136301673E-002  0.71424949999999998        1.6938812295156837E-005   1.5732156762178917E-006
 chl          48   7.4760804248946000E-007   5.0714520125062814E-006  0.14741498897078129     
 chl2c          49   3.7152990741888416E-002   3.7152990741888416E-002  0.53276120000000005        1.6938812295156837E-005   8.0659255633809150E-016
 chl          49   1.8589045910104079E-007   5.0033780696814052E-006   3.7152990741888416E-002
 chl2c          50  0.25443153808043395        2.1533072915600981E-002  0.38132569999999999        1.6938812295156837E-005   6.4755749971417884E-006
 chl          50   1.3123841260365837E-006   5.1581031814605354E-006  0.25443153808043395     
 chl2c          51   2.0700971146093840E-002   2.0700971146093840E-002  0.22275920000000002        1.6938812295156837E-005   5.1316883339841439E-016
 chl          51   1.0320472582343837E-007   4.9855016508688066E-006   2.0700971146093840E-002
 chl2c          52   7.1603300934820674E-002   3.7581825176985564E-002  0.63698869999999996        1.6938812295156837E-005   6.8323977828899024E-007
 chl          52   3.6046547007539692E-007   5.0342018506035471E-006   7.1603300934820674E-002
 chl2c          53  0.32487623024470169        3.7925801262726190E-002  0.75269794999999995        1.6938812295156837E-005   4.8409299799493953E-006
 chl          53   1.6840830619733905E-006   5.1837681713584085E-006  0.32487623024470169     
 chl2c          54   3.7082433371327092E-002   3.7082433371327092E-002  0.51861124999999997        1.6938812295156837E-005   7.8631670473971005E-016
 chl          54   1.8553743390047904E-007   5.0033780696803040E-006   3.7082433371327092E-002
 chl2c          55  0.39862951623745507        3.7357235588660491E-002  0.57808280000000001        1.6938812295156837E-005   1.0875795939385185E-005
 chl          55   2.1055567737187951E-006   5.2819891351561637E-006  0.39862951623745507     
 chl2c          56   3.7507394187257688E-002   3.7507394187257688E-002  0.61626080000000005        1.6938812295156837E-005   6.6596863877148818E-016
 chl          56   1.8766367353670568E-007   5.0033780699289497E-006   3.7507394187257688E-002
 chl2c          57   3.7727617852646313E-002   3.7727617852646313E-002  0.68163462500000005        1.6938812295156837E-005   8.2907359710979520E-016
 chl          57   1.8876553578722487E-007   5.0033780697337179E-006   3.7727617852646313E-002
 chl2c          58  0.45488395526062464        3.7765358178394853E-002  0.69416802499999997        1.6938812295156837E-005   1.1176463317006151E-005
 chl          58   2.4164336535261039E-006   5.3121980355222995E-006  0.45488395526062464     
 chl2c          59  0.40171842926122858        3.7173699120809672E-002  0.53705127500000005        1.6938812295156837E-005   1.3501662680393936E-005
 chl          59   2.1290469791804944E-006   5.2998489093364999E-006  0.40171842926122858     
 chl2c          60  0.45515363419023019        3.7607757740906807E-002  0.64452155000000000        1.6938812295156837E-005   1.3120247210340985E-005
 chl          60   2.4246956031851331E-006   5.3272025554600724E-006  0.45515363419023019     
 chl2c          61   3.7805373434125003E-002   3.7805373434125003E-002  0.70794139999999994        1.6938812295156837E-005   8.1245059003141166E-016
 chl          61   1.8915457635642905E-007   5.0033780696817228E-006   3.7805373434125003E-002
 chl2c          62  0.16342825449226792        3.7956103087269030E-002  0.76481592499999995        1.6938812295156837E-005   1.7602830382275287E-006
 chl          62   8.3009856287509046E-007   5.0792842734201993E-006  0.16342825449226792     
 chl2c          63  0.46599315800740937        3.7855601011927406E-002  0.72597904999999996        1.6938812295156837E-005   1.1020639755639353E-005
 chl          63   2.4772464699693501E-006   5.3160576017083098E-006  0.46599315800740937     
 chl2c          64   2.5708982294816416E-002   2.5708982294816416E-002  0.48435739999999999        9.4101699694425848E-006   4.7755987034039934E-016
 chl          64   1.2817217367291472E-007   4.9855016508668830E-006   2.5708982294816416E-002
 chl2c          65  0.47724736406208434        3.7953597170552002E-002  0.76379975000000000        1.6938812295156837E-005   1.0773876207652063E-005
 chl          65   2.5383897630619714E-006   5.3188135843360179E-006  0.47724736406208434     
 chl2c          66   3.1840477731474713E-002   3.1840477731474713E-002  0.35213202499999996        1.1472928915517767E-005   6.0253365833322869E-019
 chl          66   1.5874075429383614E-007   4.9855016508410900E-006   3.1840477731474713E-002
 chl2c          67   3.7937587124568600E-002   3.7937587124568600E-002  0.75736760000000003        1.6938812295156837E-005   8.0577180426084280E-016
 chl          67   1.8981609143569246E-007   5.0033780696813603E-006   3.7937587124568600E-002
 chl2c          68  0.46830704557388830        3.7855407263856986E-002  0.72590779999999999        1.6938812295156837E-005   1.1176812977573946E-005
 chl          68   2.4907226515740696E-006   5.3185675404943053E-006  0.46830704557388830     
 chl2c          69   2.1732330561541505E-002   2.1732330561541505E-002  0.45524217500000003        1.6938812295156837E-005   4.9003794665863709E-016
 chl          69   1.0834657025661619E-007   4.9855016676559798E-006   2.1732330561541505E-002
 chl2c          70   3.2658010878182209E-002   3.2658010878182209E-002  0.48694062500000002        1.1472928915517767E-005   7.8879004294081717E-018
 chl          70   1.6281656714637652E-007   4.9855016508414830E-006   3.2658010878182209E-002
 chl2c          71   4.3481058864416305E-002   4.3481058864416305E-002  0.23986107500000001        8.3433817002004043E-006   1.0747507689456190E-008
 chl          71   2.1679700397682099E-007   4.9860102223555016E-006   4.3481058864416305E-002
 chl2c          72   3.7549776402781669E-002   3.7549776402781669E-002  0.62790522500000001        1.6938812295156837E-005   6.6596863877148818E-016
 chl          72   1.8787580020148494E-007   5.0033799984909419E-006   3.7549776402781669E-002
 chl2c          73   3.1852614277819484E-002   3.1852614277819484E-002  0.35362212500000001        1.1472928915517767E-005   7.5655178598789058E-019
 chl          73   1.5880126106567376E-007   4.9855016508410976E-006   3.1852614277819484E-002
 chl2c          74  0.46140050037964558        3.7616827685877569E-002  0.64719590000000005        1.6938812295156837E-005   1.3612309715670971E-005
 chl          74   2.4610256695854985E-006   5.3338166464070553E-006  0.46140050037964558     
 chl2c          75   3.7826830779512356E-002   3.7826830779512356E-002  0.71554212500000003        1.6938812295156837E-005   6.6596863877148818E-016
 chl          75   1.8926193557712552E-007   5.0033780699289497E-006   3.7826830779512356E-002
 chl2c          76  0.29619684413228142        3.7257729557919804E-002  0.55513977500000000        1.6938812295156837E-005   5.3781346657112113E-006
 chl          76   1.5351237300112245E-006   5.1827821950919866E-006  0.29619684413228142     
 chl2c          77  0.39417440275098586        3.7138172437479272E-002  0.52973029999999999        1.6938812295156837E-005   1.3046012098415521E-005
 chl          77   2.0864138955833725E-006   5.2931237569513997E-006  0.39417440275098586     
 chl2c          78   4.7515248899399322E-002   4.7515248899399322E-002  0.45117492500000000        8.3433817002004043E-006   8.1408461554033008E-018
 chl          78   2.3688735182809993E-007   4.9855016508414965E-006   4.7515248899399322E-002
 prod   2.7369832234030161E-009   12.019714232568697        10.000000000000000     
 chl2c           1  0.44807208013688987        3.7477407714772232E-002  0.60826437499999997        1.3253919645682227E-005   1.1274907285735921E-005
 chl           1   3.4233776480190395E-007   7.6402387021596353E-007  0.44807208013688987     
 chl2c           2   3.2640259920490348E-002   3.2640259920490348E-002  0.48302390000000001        9.0256220985074049E-006   3.5712862991539442E-019
 chl           2   2.3294039784907054E-008   7.1365975153537051E-007   3.2640259920490348E-002
 chl2c           3   3.7922212503796585E-002   3.7922212503796585E-002  0.75128689999999998        1.3253919645682227E-005   7.0074451305090229E-016
 chl           3   2.7572119667771439E-008   7.2707043833508011E-007   3.7922212503796585E-002
 chl2c           4  0.52571549102042592        3.7976509103863923E-002  0.77318742499999993        1.3253919645682227E-005   1.0884887424483798E-005
 chl           4   4.0391931392297340E-007   7.6832302038305295E-007  0.52571549102042592     
 chl2c           5   2.5710500362372445E-002   2.5710500362372445E-002  0.48489679999999996        7.4334796754140705E-006   5.0815838703822277E-016
 chl           5   1.8348549300561846E-008   7.1365975153930169E-007   2.5710500362372445E-002
 chl2c           6   3.1261039902252048E-002   3.1261039902252048E-002  0.29222855000000003        9.0256220985074049E-006   1.9895242982150152E-008
 chl           6   2.2314498657534694E-008   7.1381178384686928E-007   3.1261039902252048E-002
 chl2c           7   4.3064391842467263E-002   4.3064391842467263E-002  0.22770740000000000        6.6114888497003970E-006   1.2895979380572585E-009
 chl           7   3.0733701649609628E-008   7.1366853993981350E-007   4.3064391842467263E-002
 chl2c           8   4.7969800906495587E-002   4.7969800906495587E-002  0.49578364999999996        6.6114888497003970E-006   5.9930242424067282E-009
 chl           8   3.4236069935984233E-008   7.1370048007325235E-007   4.7969800906495587E-002
 chl2c           9  0.25266477897923512        2.4803669054600401E-002  0.28700202499999999        7.4334796754140705E-006   7.8492176143941159E-006
 chl           9   1.8362072581813815E-007   7.2673653431224285E-007  0.25266477897923512     
 chl2c          10   2.5387016219684602E-002   2.5387016219684602E-002  0.39094662499999999        7.4334796754140705E-006   5.1626659350215531E-016
 chl          10   1.8117691687707289E-008   7.1365975154099364E-007   2.5387016219684602E-002
 chl2c          11   2.1820572217820047E-002   2.1820572217820047E-002  0.49737575000000001        1.3253919645682227E-005   5.1757584513130144E-016
 chl          11   1.5572464147416414E-008   7.1365975153937369E-007   2.1820572217820047E-002
 chl2c          12   4.5290941298723353E-002   4.5290941298723353E-002  0.30768942500000002        6.6114888497003970E-006   3.6664969652794833E-019
 chl          12   3.2322321914049965E-008   7.1365975153537072E-007   4.5290941298723353E-002
 chl2c          13  0.16291936657134515        3.7935816987997487E-002  0.75666275000000005        1.3253919645682227E-005   1.3759118848021048E-006
 chl          13   1.1983843508644787E-007   7.3556899715767431E-007  0.16291936657134515     
 chl2c          14   4.6856526101924839E-002   4.6856526101924839E-002  0.39804095000000000        6.6114888497003970E-006   4.1822223869326071E-018
 chl          14   3.3439616775711672E-008   7.1365975153540015E-007   4.6856526101924839E-002
 chl2c          15   2.0954299823745293E-002   2.0954299823745293E-002  0.25607262500000000        1.3253919645682227E-005   5.2130255021784438E-016
 chl          15   1.4954240405964786E-008   7.1365975154267500E-007   2.0954299823745293E-002
 chl2c          16  0.35462244127533243        3.7823443882273475E-002  0.71433214999999994        1.3253919645682227E-005   4.6669010188130536E-006
 chl          16   2.6614582970128065E-007   7.5050475865017895E-007  0.35462244127533243     
 chl2c          17   3.7542254757581245E-002   3.7542254757581245E-002  0.62580860000000005        1.3253919645682227E-005   7.0074451305090229E-016
 chl          17   2.7295863622681843E-008   7.2707043833508011E-007   3.7542254757581245E-002
 chl2c          18   2.5694475239060960E-002   2.5694475239060960E-002  0.47925950000000000        7.4334796754140705E-006   5.1914886614239491E-016
 chl          18   1.8337112815043147E-008   7.1365975153938587E-007   2.5694475239060960E-002
 chl2c          19  0.46175534731510764        3.7570220750293731E-002  0.63367130000000005        1.3253919645682227E-005   1.1279091776290033E-005
 chl          19   3.5319329415137324E-007   7.6489269957571216E-007  0.46175534731510764     
 chl2c          20   3.7020645196759419E-002   3.7020645196759419E-002  0.50678202500000002        1.3253919645682227E-005   8.5882676612988536E-016
 chl          20   2.6916616785492862E-008   7.2707043981634856E-007   3.7020645196759419E-002
 chl2c          21  0.53482461905213086        3.7838475073783531E-002  0.71973185000000006        1.3253919645682227E-005   1.3795662302808580E-005
 chl          21   4.1266716364144289E-007   7.7159343257760368E-007  0.53482461905213086     
 chl2c          22  0.42248911327402472        3.7613353106285476E-002  0.64616892500000001        1.3253919645682227E-005   8.0881489409273264E-006
 chl          22   3.2081752663709955E-007   7.5935099049290433E-007  0.42248911327402472     
 chl2c          23   3.2286562315070731E-002   3.2286562315070731E-002  0.41564179999999995        9.0256220985074049E-006   4.6613734385711311E-009
 chl          23   2.3042641746683774E-008   7.1369139649556072E-007   3.2286562315070731E-002
 chl2c          24   3.7348402796863071E-002   3.7348402796863071E-002  0.57597492500000003        1.3253919645682227E-005   8.3563459926222868E-016
 chl          24   2.7154919592463149E-008   7.2707043833060290E-007   3.7348402796863071E-002
 chl2c          25   4.5426679235459781E-002   4.5426679235459781E-002  0.31406487500000002        6.6114888497003970E-006   3.2994895582702113E-009
 chl          25   3.2420210021113669E-008   7.1368214817266796E-007   4.5426679235459781E-002
 chl2c          26   4.7955660680174553E-002   4.7955660680174553E-002  0.49427735000000000        6.6114888497003970E-006   3.5238690634346782E-019
 chl          26   3.4224024885727904E-008   7.1365975153537040E-007   4.7955660680174553E-002
 chl2c          27   4.5333133499525620E-002   4.5333133499525620E-002  0.30964730000000001        6.6114888497003970E-006   4.1460577036283710E-018
 chl          27   3.2352432789592569E-008   7.1365975153539994E-007   4.5333133499525620E-002
 chl2c          28   3.1209236063453518E-002   3.1209236063453518E-002  0.28776342500000002        9.0256220985074049E-006   4.1203168417229554E-018
 chl          28   2.2272775654653873E-008   7.1365975153539973E-007   3.1209236063453518E-002
 chl2c          29   3.7743217595736761E-002   3.7743217595736761E-002  0.68676297499999994        1.3253919645682227E-005   8.5492054167399646E-016
 chl          29   2.7443042595122311E-008   7.2709865091687639E-007   3.7743217595736761E-002
 chl2c          30   2.5380056985171612E-002   2.5380056985171612E-002  0.38930277499999999        7.4334796754140705E-006   5.2232966273140605E-016
 chl          30   1.8112725162093654E-008   7.1365975153941054E-007   2.5380056985171612E-002
 chl2c          31   3.7576959810037038E-002   3.7576959810037038E-002  0.63559385000000002        1.3253919645682227E-005   8.6221457447385830E-016
 chl          31   2.7321096640761030E-008   7.2707043834513185E-007   3.7576959810037038E-002
 chl2c          32   9.8858170156821051E-002   2.0893126428578448E-002  0.24722667500000001        1.3253919645682227E-005   1.0916426949689787E-006
 chl          32   7.1138560122466027E-008   7.1960223428794251E-007   9.8858170156821051E-002
 chl2c          33  0.46507724788390825        3.7458922634011876E-002  0.60343137499999999        1.3253919645682227E-005   1.3442350031615629E-005
 chl          33   3.5658087171758902E-007   7.6671321450366472E-007  0.46507724788390825     
 chl2c          34   2.5350269098008315E-002   2.5350269098008315E-002  0.38241020000000003        7.4334796754140705E-006   5.0705890301172756E-016
 chl          34   1.8091466745938820E-008   7.1365975153929259E-007   2.5350269098008315E-002
 chl2c          35   2.5740370148566064E-002   2.5740370148566064E-002  0.49574644999999995        7.4334796754140705E-006   5.0985428608744408E-016
 chl          35   1.8369866164755633E-008   7.1365975153931408E-007   2.5740370148566064E-002
 chl2c          36   3.7770393924465726E-002   3.7770393924465726E-002  0.69587337500000002        1.3253919645682227E-005   7.0074451305090229E-016
 chl          36   2.7461736866749942E-008   7.2707043833508011E-007   3.7770393924465726E-002
 chl2c          37   2.1353674699533250E-002   2.1353674699533250E-002  0.33194060000000003        1.3253919645682227E-005   5.0585398002890090E-016
 chl          37   1.5239258180519580E-008   7.1365975153928327E-007   2.1353674699533250E-002
 chl2c          38   2.1543295686358745E-002   2.1543295686358745E-002  0.38455722500000000        1.3253919645682227E-005   5.2300694429556304E-016
 chl          38   1.5374583046866948E-008   7.1365975153941572E-007   2.1543295686358745E-002
 chl2c          39   2.5670077108751441E-002   2.5670077108751441E-002  0.47091117500000002        7.4334796754140705E-006   5.1521630605661902E-016
 chl          39   1.8319700851427650E-008   7.1365975153935548E-007   2.5670077108751441E-002
 chl2c          40  0.34200314166977092        3.7687445774703773E-002  0.66875547499999999        1.3253919645682227E-005   4.6386658206414346E-006
 chl          40   2.5648623550137785E-007   7.4995286373431650E-007  0.34200314166977092     
 chl2c          41  0.34982914577052937        2.5582381488167241E-002  0.44304987499999998        7.4334796754140705E-006   6.1795702638961968E-006
 chl          41   2.5547418471129489E-007   7.3028273315704040E-007  0.34982914577052937     
 chl2c          42  0.44764149036508022        3.7949995630725070E-002  0.76234377499999995        1.3253919645682227E-005   7.1861393276264263E-006
 chl          42   3.3984955377310257E-007   7.5920029998991734E-007  0.44764149036508022     
 chl2c          43  0.23992287076761964        2.1185090152268007E-002  0.29539925000000000        1.3253919645682227E-005   8.4661754992119714E-006
 chl          43   1.7621589571398224E-007   7.3446893641356266E-007  0.23992287076761964     
 chl2c          44   3.7536352708156646E-002   3.7536352708156646E-002  0.62417262500000004        1.3253919645682227E-005   8.3691951973888042E-016
 chl          44   2.7291572447047866E-008   7.2707043913505773E-007   3.7536352708156646E-002
 chl2c          45   4.6544927192009838E-002   4.6544927192009838E-002  0.37662252499999999        6.6114888497003970E-006   4.6929206150183491E-019
 chl          45   3.3217241175081690E-008   7.1365975153537135E-007   4.6544927192009838E-002
 chl2c          46   3.7083195475449568E-002   3.7083195475449568E-002  0.51876034999999998        1.3253919645682227E-005   8.6212433504517432E-016
 chl          46   2.6962095566535165E-008   7.2707044851043269E-007   3.7083195475449568E-002
 chl2c          47   3.7519784612651236E-002   3.7519784612651236E-002  0.61962282499999999        1.3253919645682227E-005   8.6357953337075345E-016
 chl          47   2.7279526244398388E-008   7.2707043833082260E-007   3.7519784612651236E-002
 chl2c          48  0.32172311104780221        3.7823212136301673E-002  0.71424949999999998        1.3253919645682227E-005   3.8795172143809732E-006
 chl          48   2.4047862229692721E-007   7.4747077234745641E-007  0.32172311104780221     
 chl2c          49   3.7152990741888416E-002   3.7152990741888416E-002  0.53276120000000005        1.3253919645682227E-005   8.5208411712346730E-016
 chl          49   2.7012841264002449E-008   7.2707043833073229E-007   3.7152990741888416E-002
 chl2c          50  0.25008522511521081        2.1533072915600981E-002  0.38132569999999999        1.3253919645682227E-005   4.8153810043343618E-006
 chl          50   1.8316999580110036E-007   7.3243029737848955E-007  0.25008522511521081     
 chl2c          51   2.0700971146093840E-002   2.0700971146093840E-002  0.22275920000000002        1.3253919645682227E-005   5.2494750181914730E-016
 chl          51   1.4773449924746255E-008   7.1365975153943076E-007   2.0700971146093840E-002
 chl2c          52  0.23237544221425394        3.7581825176985564E-002  0.63698869999999996        1.3253919645682227E-005   2.4243548425806224E-006
 chl          52   1.7213314436398937E-007   7.4075445633915054E-007  0.23237544221425394     
 chl2c          53  0.43584336153703523        3.7925801262726190E-002  0.75269794999999995        1.3253919645682227E-005   6.8612857347904291E-006
 chl          53   3.3042671022754201E-007   7.5813179547410501E-007  0.43584336153703523     
 chl2c          54   3.7082433371327092E-002   3.7082433371327092E-002  0.51861124999999997        1.3253919645682227E-005   8.3672798038269729E-016
 chl          54   2.6961541085656484E-008   7.2707043833061148E-007   3.7082433371327092E-002
 chl2c          55  0.40614956665791330        3.7357235588660491E-002  0.57808280000000001        1.3253919645682227E-005   9.0496242888268792E-006
 chl          55   3.0847397557718321E-007   7.5950832131996564E-007  0.40614956665791330     
 chl2c          56   3.7507394187257688E-002   3.7507394187257688E-002  0.61626080000000005        1.3253919645682227E-005   7.0074451305090229E-016
 chl          56   2.7270517532536084E-008   7.2707043833508011E-007   3.7507394187257688E-002
 chl2c          57   3.7727617852646313E-002   3.7727617852646313E-002  0.68163462500000005        1.3253919645682227E-005   8.6885178922724594E-016
 chl          57   2.7430635649303269E-008   7.2707043833087416E-007   3.7727617852646313E-002
 chl2c          58  0.49376314586934922        3.7765358178394853E-002  0.69416802499999997        1.3253919645682227E-005   1.1334159588354615E-005
 chl          58   3.7867062817589882E-007   7.6690743597152931E-007  0.49376314586934922     
 chl2c          59  0.42791517396556589        3.7173699120809672E-002  0.53705127500000005        1.3253919645682227E-005   1.3954662658479364E-005
 chl          59   3.2710291284397779E-007   7.6441064197994438E-007  0.42791517396556589     
 chl2c          60  0.48953079364234631        3.7607757740906807E-002  0.64452155000000000        1.3253919645682227E-005   1.3490436401081817E-005
 chl          60   3.7615103178796746E-007   7.6839095042259037E-007  0.48953079364234631     
 chl2c          61   3.7805373434125003E-002   3.7805373434125003E-002  0.70794139999999994        1.3253919645682227E-005   8.5647934252277963E-016
 chl          61   2.7487169434007593E-008   7.2707043833076680E-007   3.7805373434125003E-002
 chl2c          62  0.34041586679586294        3.7956103087269030E-002  0.76481592499999995        1.3253919645682227E-005   4.0654218727696080E-006
 chl          62   2.5482762325913043E-007   7.4857739639951280E-007  0.34041586679586294     
 chl2c          63  0.50345877532304506        3.7855601011927406E-002  0.72597904999999996        1.3253919645682227E-005   1.0885108278197318E-005
 chl          63   3.8617447490955160E-007   7.6704289176757752E-007  0.50345877532304506     
 chl2c          64   2.5708982294816416E-002   2.5708982294816416E-002  0.48435739999999999        7.4334796754140705E-006   4.9929431411751115E-016
 chl          64   1.8347465916845206E-008   7.1365975153923234E-007   2.5708982294816416E-002
 chl2c          65  0.52619444542551597        3.7953597170552002E-002  0.76379975000000000        1.3253919645682227E-005   1.1209441548555400E-005
 chl          65   4.0448182326919875E-007   7.6869268914860505E-007  0.52619444542551597     
 chl2c          66   3.1840477731474713E-002   3.1840477731474713E-002  0.35213202499999996        9.0256220985074049E-006   3.8596263711046084E-019
 chl          66   2.2723267426611747E-008   7.1365975153537072E-007   3.1840477731474713E-002
 chl2c          67   3.7937587124568600E-002   3.7937587124568600E-002  0.75736760000000003        1.3253919645682227E-005   8.5146684176095653E-016
 chl          67   2.7583298099870249E-008   7.2707043833072731E-007   3.7937587124568600E-002
 chl2c          68  0.50974737619721477        3.7855407263856986E-002  0.72590779999999999        1.3253919645682227E-005   1.1344219379009315E-005
 chl          68   3.9142179499645760E-007   7.6787407503010172E-007  0.50974737619721477     
 chl2c          69   2.1732330561541505E-002   2.1732330561541505E-002  0.45524217500000003        1.3253919645682227E-005   5.0841251875764924E-016
 chl          69   1.5509489628975965E-008   7.1365975154189149E-007   2.1732330561541505E-002
 chl2c          70   3.2658010878182209E-002   3.2658010878182209E-002  0.48694062500000002        9.0256220985074049E-006   5.0930427123282503E-018
 chl          70   2.3306707928964139E-008   7.1365975153540714E-007   3.2658010878182209E-002
 chl2c          71   4.3481058864416305E-002   4.3481058864416305E-002  0.23986107500000001        6.6114888497003970E-006   6.9044894177264919E-009
 chl          71   3.1032721761693601E-008   7.1370667072438575E-007   4.3481058864416305E-002
 chl2c          72  0.13540584823369450        3.7549776402781669E-002  0.62790522500000001        1.3253919645682227E-005   1.1440372659851319E-006
 chl          72   9.9405605300648660E-008   7.3413081190619126E-007  0.13540584823369450     
 chl2c          73   3.1852614277819484E-002   3.1852614277819484E-002  0.35362212500000001        9.0256220985074049E-006   4.8467016432737117E-019
 chl          73   2.2731928791260676E-008   7.1365975153537135E-007   3.1852614277819484E-002
 chl2c          74  0.49417061006677132        3.7616827685877569E-002  0.64719590000000005        1.3253919645682227E-005   1.3850447226839427E-005
 chl          74   3.7999354101121110E-007   7.6895212558243229E-007  0.49417061006677132     
 chl2c          75   3.7826830779512356E-002   3.7826830779512356E-002  0.71554212500000003        1.3253919645682227E-005   7.0074451305090229E-016
 chl          75   2.7502770435686948E-008   7.2707043833508011E-007   3.7826830779512356E-002
 chl2c          76  0.26483542797400506        3.7257729557919804E-002  0.55513977500000000        1.3253919645682227E-005   3.3561334812543913E-006
 chl          76   1.9713565348280972E-007   7.4437040010432281E-007  0.26483542797400506     
 chl2c          77  0.42004942599147793        3.7138172437479272E-002  0.52973029999999999        1.3253919645682227E-005   1.3444313948627997E-005
 chl          77   3.2074083544181165E-007   7.6357879714926429E-007  0.42004942599147793     
 chl2c          78   4.7515248899399322E-002   4.7515248899399322E-002  0.45117492500000000        6.6114888497003970E-006   5.2570831863930070E-018
 chl          78   3.3909720723688407E-008   7.1365975153540841E-007   4.7515248899399322E-002
 prod   1.7525292720157746E-009   9.3848029397693118        10.000000000000000     
 chl2c           1  0.47946085558691026        3.7477407714772232E-002  0.60826437499999997        1.0033148589016490E-005   1.1358606542301892E-005
 chl           1   1.2412599533120325E-009   2.5888660958413391E-009  0.47946085558691026     
 chl2c           2   3.2640259920490348E-002   3.2640259920490348E-002  0.48302390000000001        6.8699974192450732E-006   2.9582581775789849E-019
 chl           2   8.3754728069019967E-012   2.5659945194383040E-010   3.2640259920490348E-002
 chl2c           3   3.7922212503796585E-002   3.7922212503796585E-002  0.75128689999999998        1.0033148589016490E-005   7.3620710125710834E-016
 chl           3   9.5057608138566073E-011   2.5066472091798277E-009   3.7922212503796585E-002
 chl2c           4  0.55752803880729418        3.7976509103863923E-002  0.77318742499999993        1.0033148589016490E-005   1.0027447094098847E-005
 chl           4   1.4481955013695562E-009   2.5975294524516554E-009  0.55752803880729418     
 chl2c           5   2.5710500362372445E-002   2.5710500362372445E-002  0.48489679999999996        5.6874117414581094E-006   5.2046139800131936E-016
 chl           5   6.5973003022232013E-012   2.5659945194526090E-010   2.5710500362372445E-002
 chl2c           6   3.1261039902252048E-002   3.1261039902252048E-002  0.29222855000000003        6.8699974192450732E-006   3.9865849325089904E-008
 chl           6   8.0241334404250436E-012   2.5668159042421951E-010   3.1261039902252048E-002
 chl2c           7   4.3064391842467263E-002   4.3064391842467263E-002  0.22770740000000000        5.0721005335467803E-006   2.8866605461849013E-019
 chl           7   1.1050365789584345E-011   2.5660099485457504E-010   4.3064391842467263E-002
 chl2c           8   4.7969800906495587E-002   4.7969800906495587E-002  0.49578364999999996        5.0721005335467803E-006   4.6760930447523727E-009
 chl           8   1.2309654975259590E-011   2.5661259256118239E-010   4.7969800906495587E-002
 chl2c           9  0.25467449685291826        2.4803669054600401E-002  0.28700202499999999        5.6874117414581094E-006   6.4295798442270171E-006
 chl           9   6.6412477888833571E-011   2.6077396327276799E-010  0.25467449685291826     
 chl2c          10   2.5387016219684602E-002   2.5387016219684602E-002  0.39094662499999999        5.6874117414581094E-006   5.2636704280053486E-016
 chl          10   6.5142944485022233E-012   2.5659945194548564E-010   2.5387016219684602E-002
 chl2c          11   2.1820572217820047E-002   2.1820572217820047E-002  0.49737575000000001        1.0033148589016490E-005   5.2731588838915896E-016
 chl          11   5.5991468722251005E-012   2.5659945194528339E-010   2.1820572217820047E-002
 chl2c          12   4.5290941298723353E-002   4.5290941298723353E-002  0.30768942500000002        5.0721005335467803E-006   3.0371344961934453E-019
 chl          12   1.1621630715273037E-011   2.5659945194383991E-010   4.5290941298723353E-002
 chl2c          13  0.40485793450498880        3.7935816987997487E-002  0.75666275000000005        1.0033148589016490E-005   4.3682801011213865E-006
 chl          13   1.0292401896999287E-009   2.5422255610683752E-009  0.40485793450498880     
 chl2c          14   4.6856526101924839E-002   4.6856526101924839E-002  0.39804095000000000        5.0721005335467803E-006   3.6232688952574267E-018
 chl          14   1.2023358917746164E-011   2.5659945194384037E-010   4.6856526101924839E-002
 chl2c          15   2.0954299823745293E-002   2.0954299823745293E-002  0.25607262500000000        1.0033148589016490E-005   5.3000972080124569E-016
 chl          15   5.3768618506790139E-012   2.5659945194570448E-010   2.0954299823745293E-002
 chl2c          16  0.47804063217930476        3.7823443882273475E-002  0.71433214999999994        1.0033148589016490E-005   7.2497682748418876E-006
 chl          16   1.2279043396134202E-009   2.5686191862302924E-009  0.47804063217930476     
 chl2c          17   3.7542254757581245E-002   3.7542254757581245E-002  0.62580860000000005        1.0033148589016490E-005   7.3620710125710834E-016
 chl          17   9.4105188114409134E-011   2.5066472091798277E-009   3.7542254757581245E-002
 chl2c          18   2.5694475239060960E-002   2.5694475239060960E-002  0.47925950000000000        5.6874117414581094E-006   5.2845419140776535E-016
 chl          18   6.5931882643647954E-012   2.5659945194528722E-010   2.5694475239060960E-002
 chl2c          19  0.49176543029393022        3.7570220750293731E-002  0.63367130000000005        1.0033148589016490E-005   1.1016126699453911E-005
 chl          19   1.2738881179891305E-009   2.5904385292551415E-009  0.49176543029393022     
 chl2c          20  0.21208113850579796        3.7020645196759419E-002  0.50678202500000002        1.0033148589016490E-005   1.8295701030422713E-006
 chl          20   5.3414815423843602E-010   2.5186028234369993E-009  0.21208113850579796     
 chl2c          21  0.56881498223520954        3.7838475073783531E-002  0.71973185000000006        1.0033148589016490E-005   1.3608529972850015E-005
 chl          21   1.4818152082520469E-009   2.6050917337463951E-009  0.56881498223520954     
 chl2c          22  0.41003153175191320        3.7613353106285476E-002  0.64616892500000001        1.0033148589016490E-005   5.6286702644761415E-006
 chl          22   1.0552343226712798E-009   2.5735443275853773E-009  0.41003153175191320     
 chl2c          23   3.2286562315070731E-002   3.2286562315070731E-002  0.41564179999999995        6.8699974192450732E-006   5.3149511064777921E-009
 chl          23   8.2851134061064375E-012   2.5661181655871456E-010   3.2286562315070731E-002
 chl2c          24   3.7348402796863071E-002   3.7348402796863071E-002  0.57597492500000003        1.0033148589016490E-005   8.7089060048230830E-016
 chl          24   9.3619269637932255E-011   2.5066472091758481E-009   3.7348402796863071E-002
 chl2c          25   4.5426679235459781E-002   4.5426679235459781E-002  0.31406487500000002        5.0721005335467803E-006   3.9194209576167829E-009
 chl          25   1.1656867701836014E-011   2.5660840497310085E-010   4.5426679235459781E-002
 chl2c          26   4.7955660680174553E-002   4.7955660680174553E-002  0.49427735000000000        5.0721005335467803E-006   2.9189760202347961E-019
 chl          26   1.2305396248137087E-011   2.5659945194383040E-010   4.7955660680174553E-002
 chl2c          27   4.5333133499525620E-002   4.5333133499525620E-002  0.30964730000000001        5.0721005335467803E-006   3.5919125172466505E-018
 chl          27   1.1632457210875219E-011   2.5659945194384027E-010   4.5333133499525620E-002
 chl2c          28   3.1209236063453518E-002   3.1209236063453518E-002  0.28776342500000002        6.8699974192450732E-006   3.5695943195483224E-018
 chl          28   8.0082728694681059E-012   2.5659945194384022E-010   3.1209236063453518E-002
 chl2c          29   3.7743217595736761E-002   3.7743217595736761E-002  0.68676297499999994        1.0033148589016490E-005   8.8540004698796127E-016
 chl          29   9.4609493357694657E-011   2.5066621073763769E-009   3.7743217595736761E-002
 chl2c          30   2.5380056985171612E-002   2.5380056985171612E-002  0.38930277499999999        5.6874117414581094E-006   5.3075038219781660E-016
 chl          30   6.5125087127353876E-012   2.5659945194529482E-010   2.5380056985171612E-002
 chl2c          31   3.7576959810037038E-002   3.7576959810037038E-002  0.63559385000000002        1.0033148589016490E-005   8.9084069663776534E-016
 chl          31   9.4192181437257933E-011   2.5066472091789240E-009   3.7576959810037038E-002
 chl2c          32   2.0893126428578448E-002   2.0893126428578448E-002  0.24722667500000001        1.0033148589016490E-005   5.3113155327108070E-016
 chl          32   5.3834874036475161E-012   2.5766787091680871E-010   2.0893126428578448E-002
 chl2c          33  0.48811188572984110        3.7458922634011876E-002  0.60343137499999999        1.0033148589016490E-005   1.2813028980967759E-005
 chl          33   1.2659348178532965E-009   2.5935340950782806E-009  0.48811188572984110     
 chl2c          34   2.5350269098008315E-002   2.5350269098008315E-002  0.38241020000000003        5.6874117414581094E-006   5.1965660419633540E-016
 chl          34   6.5048651572137476E-012   2.5659945194525816E-010   2.5350269098008315E-002
 chl2c          35   2.5740370148566064E-002   2.5740370148566064E-002  0.49574644999999995        5.6874117414581094E-006   5.2170086891919915E-016
 chl          35   6.6049648729903083E-012   2.5659945194526488E-010   2.5740370148566064E-002
 chl2c          36   3.7770393924465726E-002   3.7770393924465726E-002  0.69587337500000002        1.0033148589016490E-005   7.3620710125710834E-016
 chl          36   9.4677052520384733E-011   2.5066472091798277E-009   3.7770393924465726E-002
 chl2c          37   2.1353674699533250E-002   2.1353674699533250E-002  0.33194060000000003        1.0033148589016490E-005   5.1877352271918905E-016
 chl          37   5.4793412249174955E-012   2.5659945194525527E-010   2.1353674699533250E-002
 chl2c          38   2.1543295686358745E-002   2.1543295686358745E-002  0.38455722500000000        1.0033148589016490E-005   5.3123836520813043E-016
 chl          38   5.5279978662151224E-012   2.5659945194529642E-010   2.1543295686358745E-002
 chl2c          39   2.5670077108751441E-002   2.5670077108751441E-002  0.47091117500000002        5.6874117414581094E-006   5.2560493398738107E-016
 chl          39   6.5869277174986403E-012   2.5659945194527775E-010   2.5670077108751441E-002
 chl2c          40  0.45670136481286078        3.7687445774703773E-002  0.66875547499999999        1.0033148589016490E-005   7.2253720334084350E-006
 chl          40   1.1722812639690113E-009   2.5668442318961943E-009  0.45670136481286078     
 chl2c          41  0.37821101789365114        2.5582381488167241E-002  0.44304987499999998        5.6874117414581094E-006   7.3491331896946997E-006
 chl          41   9.9171770746118327E-011   2.6221280199194080E-010  0.37821101789365114     
 chl2c          42  0.55029689891032563        3.7949995630725070E-002  0.76234377499999995        1.0033148589016490E-005   9.9248349576447012E-006
 chl          42   1.4231274449046822E-009   2.5861084220585257E-009  0.55029689891032563     
 chl2c          43  0.25011153088172522        2.1185090152268007E-002  0.29539925000000000        1.0033148589016490E-005   8.1840806958473261E-006
 chl          43   6.5875887041285651E-011   2.6338604545360834E-010  0.25011153088172522     
 chl2c          44  0.13458066887303533        3.7536352708156646E-002  0.62417262500000004        1.0033148589016490E-005   8.6071698748297339E-007
 chl          44   3.3821741932243380E-010   2.5131203623420189E-009  0.13458066887303533     
 chl2c          45   4.6544927192009838E-002   4.6544927192009838E-002  0.37662252499999999        5.0721005335467803E-006   3.8874945690571903E-019
 chl          45   1.1943402808235227E-011   2.5659945194383071E-010   4.6544927192009838E-002
 chl2c          46   3.7083195475449568E-002   3.7083195475449568E-002  0.51876034999999998        1.0033148589016490E-005   8.9077354212148800E-016
 chl          46   9.2954488538356794E-011   2.5066472116702042E-009   3.7083195475449568E-002
 chl2c          47   3.7519784612651236E-002   3.7519784612651236E-002  0.61962282499999999        1.0033148589016490E-005   8.9185600072352290E-016
 chl          47   9.4048863388198638E-011   2.5066472091763142E-009   3.7519784612651236E-002
 chl2c          48  0.47423127112247043        3.7823212136301673E-002  0.71424949999999998        1.0033148589016490E-005   7.0795092741747447E-006
 chl          48   1.2161844565610572E-009   2.5645387190145396E-009  0.47423127112247043     
 chl2c          49   3.7152990741888416E-002   3.7152990741888416E-002  0.53276120000000005        1.0033148589016490E-005   8.8327744417585728E-016
 chl          49   9.3129440555700923E-011   2.5066472091761227E-009   3.7152990741888416E-002
 chl2c          50  0.19689245092050139        2.1533072915600981E-002  0.38132569999999999        1.0033148589016490E-005   2.0421760218682912E-006
 chl          50   5.1536284418830603E-011   2.6174840212456512E-010  0.19689245092050139     
 chl2c          51   2.0700971146093840E-002   2.0700971146093840E-002  0.22275920000000002        1.0033148589016490E-005   5.3263476501873226E-016
 chl          51   5.3118578508231702E-012   2.5659945194530107E-010   2.0700971146093840E-002
 chl2c          52  0.39192900157712912        3.7581825176985564E-002  0.63698869999999996        1.0033148589016490E-005   5.1106305065150004E-006
 chl          52   9.9921120439484086E-010   2.5494699304567859E-009  0.39192900157712912     
 chl2c          53  0.52985652248049597        3.7925801262726190E-002  0.75269794999999995        1.0033148589016490E-005   8.9782218931466447E-006
 chl          53   1.3684388124961754E-009   2.5826591811872010E-009  0.52985652248049597     
 chl2c          54   3.7082433371327092E-002   3.7082433371327092E-002  0.51861124999999997        1.0033148589016490E-005   8.7171804796197603E-016
 chl          54   9.2952578119687104E-011   2.5066472091758671E-009   3.7082433371327092E-002
 chl2c          55  0.38262844986492567        3.7357235588660491E-002  0.57808280000000001        1.0033148589016490E-005   5.6771348965394945E-006
 chl          55   9.8431394396425612E-010   2.5725058978540033E-009  0.38262844986492567     
 chl2c          56   3.7507394187257688E-002   3.7507394187257688E-002  0.61626080000000005        1.0033148589016490E-005   7.3620710125710834E-016
 chl          56   9.4017804963097180E-011   2.5066472091798277E-009   3.7507394187257688E-002
 chl2c          57   3.7727617852646313E-002   3.7727617852646313E-002  0.68163462500000005        1.0033148589016490E-005   8.9576938015186645E-016
 chl          57   9.4569827999209713E-011   2.5066472091764027E-009   3.7727617852646313E-002
 chl2c          58  0.52997956773726773        3.7765358178394853E-002  0.69416802499999997        1.0033148589016490E-005   1.1240570609053112E-005
 chl          58   1.3754862943985546E-009   2.5953572139981794E-009  0.52997956773726773     
 chl2c          59  0.44954114515364829        3.7173699120809672E-002  0.53705127500000005        1.0033148589016490E-005   1.3839937208347151E-005
 chl          59   1.1637041347654059E-009   2.5886487751141544E-009  0.44954114515364829     
 chl2c          60  0.51898665356230378        3.7607757740906807E-002  0.64452155000000000        1.0033148589016490E-005   1.3367075843163080E-005
 chl          60   1.3482694937337172E-009   2.5978885670358744E-009  0.51898665356230378     
 chl2c          61   3.7805373434125003E-002   3.7805373434125003E-002  0.70794139999999994        1.0033148589016490E-005   8.8656490633474196E-016
 chl          61   9.4764733810513340E-011   2.5066472091761959E-009   3.7805373434125003E-002
 chl2c          62  0.49933907339427130        3.7956103087269030E-002  0.76481592499999995        1.0033148589016490E-005   7.2166071318258438E-006
 chl          62   1.2819513128460470E-009   2.5672962144379111E-009  0.49933907339427130     
 chl2c          63  0.53256330616476366        3.7855601011927406E-002  0.72597904999999996        1.0033148589016490E-005   1.0027917547631629E-005
 chl          63   1.3817872899405189E-009   2.5945972505905681E-009  0.53256330616476366     
 chl2c          64   2.5708982294816416E-002   2.5708982294816416E-002  0.48435739999999999        5.6874117414581094E-006   5.1394541558797948E-016
 chl          64   6.5969107669197537E-012   2.5659945194523934E-010   2.5708982294816416E-002
 chl2c          65  0.57099993965782148        3.7953597170552002E-002  0.76379975000000000        1.0033148589016490E-005   1.1347918820767641E-005
 chl          65   1.4846139199419561E-009   2.6000246529476495E-009  0.57099993965782148     
 chl2c          66   3.1840477731474713E-002   3.1840477731474713E-002  0.35213202499999996        6.8699974192450732E-006   3.1971320475012179E-019
 chl          66   8.1702491355261513E-012   2.5659945194383050E-010   3.1840477731474713E-002
 chl2c          67   3.7937587124568600E-002   3.7937587124568600E-002  0.75736760000000003        1.0033148589016490E-005   8.8281499944044876E-016
 chl          67   9.5096146888675492E-011   2.5066472091761124E-009   3.7937587124568600E-002
 chl2c          68  0.54913636460629445        3.7855407263856986E-002  0.72590779999999999        1.0033148589016490E-005   1.1312454027238253E-005
 chl          68   1.4265032779880770E-009   2.5977213856722355E-009  0.54913636460629445     
 chl2c          69   2.1732330561541505E-002   2.1732330561541505E-002  0.45524217500000003        1.0033148589016490E-005   5.2064727889985053E-016
 chl          69   5.5765041115918909E-012   2.5659945194558743E-010   2.1732330561541505E-002
 chl2c          70   3.2658010878182209E-002   3.2658010878182209E-002  0.48694062500000002        6.8699974192450732E-006   4.4131346954759230E-018
 chl          70   8.3800276929176078E-012   2.5659945194384270E-010   3.2658010878182209E-002
 chl2c          71   4.3481058864416305E-002   4.3481058864416305E-002  0.23986107500000001        5.0721005335467803E-006   5.5160173012115567E-009
 chl          71   1.1157881291079529E-011   2.5661475553924079E-010   4.3481058864416305E-002
 chl2c          72  0.33752654112210401        3.7549776402781669E-002  0.62790522500000001        1.0033148589016490E-005   3.6613777819960785E-006
 chl          72   8.5607132216581456E-010   2.5363081650403345E-009  0.33752654112210401     
 chl2c          73   3.1852614277819484E-002   3.1852614277819484E-002  0.35362212500000001        6.8699974192450732E-006   4.0149020547337645E-019
 chl          73   8.1733633666667157E-012   2.5659945194383071E-010   3.1852614277819484E-002
 chl2c          74  0.52269948992684157        3.7616827685877569E-002  0.64719590000000005        1.0033148589016490E-005   1.3631330686815090E-005
 chl          74   1.3584719400209557E-009   2.5989540188973423E-009  0.52269948992684157     
 chl2c          75   3.7826830779512356E-002   3.7826830779512356E-002  0.71554212500000003        1.0033148589016490E-005   7.3620710125710834E-016
 chl          75   9.4818519805582248E-011   2.5066472091798277E-009   3.7826830779512356E-002
 chl2c          76  0.12060390168975459        3.7257729557919804E-002  0.55513977500000000        1.0033148589016490E-005   7.7293916892718750E-007
 chl          76   3.0553438248310593E-010   2.5333706306539947E-009  0.12060390168975459     
 chl2c          77  0.44194877678302136        3.7138172437479272E-002  0.52973029999999999        1.0033148589016490E-005   1.3379222827615160E-005
 chl          77   1.1432888072058418E-009   2.5869260585534994E-009  0.44194877678302136     
 chl2c          78   4.7515248899399322E-002   4.7515248899399322E-002  0.45117492500000000        5.0721005335467803E-006   4.5554205340087871E-018
 chl          78   1.2192386826561161E-011   2.5659945194384311E-010   4.7515248899399322E-002
 prod   1.4515378082745185E-009   7.0892931729811712        10.000000000000000     
 chl2c           1  0.50533819887484266        3.7477407714772232E-002  0.60826437499999997        7.6091718546423293E-006   1.1362033574689243E-005
 chl           1   1.6501686558482980E-012   3.2654738144127437E-012  0.50533819887484266     
 chl2c           2   3.2640259920490348E-002   3.2640259920490348E-002  0.48302390000000001        5.2359686175872762E-006   2.7043738121561194E-019
 chl           2   1.8834774679456579E-015   5.7704119775200705E-014   3.2640259920490348E-002
 chl2c           3   3.7922212503796585E-002   3.7922212503796585E-002  0.75128689999999998        7.6091718546423293E-006   7.6822612083990304E-016
 chl           3   1.2159318641772657E-013   3.2063842900926009E-012   3.7922212503796585E-002
 chl2c           4  0.57673292164622381        3.7976509103863923E-002  0.77318742499999993        7.6091718546423293E-006   8.6358468843856336E-006
 chl           4   1.8864008150574879E-012   3.2708394895733613E-012  0.57673292164622381     
 chl2c           5   2.5710500362372445E-002   2.5710500362372445E-002  0.48489679999999996        4.3582991015582382E-006   5.2702765054780033E-016
 chl           5   1.4836017923990197E-015   5.7704119775525047E-014   2.5710500362372445E-002
 chl2c           6   3.1261039902252048E-002   3.1261039902252048E-002  0.29222855000000003        5.2359686175872762E-006   5.1822273886853022E-008
 chl           6   1.8045978192080686E-015   5.7726736693684501E-014   3.1261039902252048E-002
 chl2c           7   4.3064391842467263E-002   4.3064391842467263E-002  0.22770740000000000        3.8943877767998270E-006   2.6389179067222621E-019
 chl           7   2.4850026645121967E-015   5.7704348260681834E-014   4.3064391842467263E-002
 chl2c           8   4.7969800906495587E-002   4.7969800906495587E-002  0.49578364999999996        3.8943877767998270E-006   3.8889906443904338E-009
 chl           8   2.7681850599661845E-015   5.7706828205562654E-014   4.7969800906495587E-002
 chl2c           9  0.25113895083083454        2.4803669054600401E-002  0.28700202499999999        4.3582991015582382E-006   4.3796414588118961E-006
 chl           9   1.4700174350300677E-014   5.8534027882447493E-014  0.25113895083083454     
 chl2c          10   2.5387016219684602E-002   2.5387016219684602E-002  0.39094662499999999        4.3582991015582382E-006   5.3172137378810705E-016
 chl          10   1.4649354246846015E-015   5.7704119775553572E-014   2.5387016219684602E-002
 chl2c          11   2.1820572217820047E-002   2.1820572217820047E-002  0.49737575000000001        7.6091718546423293E-006   5.3247362835122844E-016
 chl          11   1.2591369128276807E-015   5.7704119775529566E-014   2.1820572217820047E-002
 chl2c          12   4.5290941298723353E-002   4.5290941298723353E-002  0.30768942500000002        3.8943877767998270E-006   3.6112785028986907E-010
 chl          12   2.6134771287758738E-015   5.7704191033219746E-014   4.5290941298723353E-002
 chl2c          13  0.53764962794315041        3.7935816987997487E-002  0.75666275000000005        7.6091718546423293E-006   7.0670630359357244E-006
 chl          13   1.7422196008602032E-012   3.2404367274005084E-012  0.53764962794315041     
 chl2c          14   4.6856526101924839E-002   4.6856526101924839E-002  0.39804095000000000        3.8943877767998270E-006   3.4322451649346114E-018
 chl          14   2.7038145944353902E-015   5.7704119775202864E-014   4.6856526101924839E-002
 chl2c          15   2.0954299823745293E-002   2.0954299823745293E-002  0.25607262500000000        7.6091718546423293E-006   5.3460667160545523E-016
 chl          15   1.2091494268428294E-015   5.7704119775580772E-014   2.0954299823745293E-002
 chl2c          16  0.54943086054292944        3.7823443882273475E-002  0.71433214999999994        7.6091718546423293E-006   9.0551696586996534E-006
 chl          16   1.7886115598850919E-012   3.2553896920126492E-012  0.54943086054292944     
 chl2c          17   3.7542254757581245E-002   3.7542254757581245E-002  0.62580860000000005        7.6091718546423293E-006   7.6822612083990304E-016
 chl          17   1.2037489586936271E-013   3.2063842900926009E-012   3.7542254757581245E-002
 chl2c          18   2.5694475239060960E-002   2.5694475239060960E-002  0.47925950000000000        4.3582991015582382E-006   5.3337543495260143E-016
 chl          18   1.4826770767641718E-015   5.7704119775530323E-014   2.5694475239060960E-002
 chl2c          19  0.51436538405318044        3.7570220750293731E-002  0.63367130000000005        7.6091718546423293E-006   1.0393963541869937E-005
 chl          19   1.6800626280969924E-012   3.2662824524818531E-012  0.51436538405318044     
 chl2c          20  0.35448314649108914        3.7020645196759419E-002  0.50678202500000002        7.6091718546423293E-006   4.4877379178491230E-006
 chl          20   1.1424004288727814E-012   3.2227214190040442E-012  0.35448314649108914     
 chl2c          21  0.59573973606564978        3.7838475073783531E-002  0.71973185000000006        7.6091718546423293E-006   1.3156507671161553E-005
 chl          21   1.9520827056343697E-012   3.2767374533822476E-012  0.59573973606564978     
 chl2c          22  0.36156662638166948        3.7613353106285476E-002  0.64616892500000001        7.6091718546423293E-006   3.1232259131364493E-006
 chl          22   1.1752174670525471E-012   3.2503482935175225E-012  0.36156662638166948     
 chl2c          23   3.2286562315070731E-002   3.2286562315070731E-002  0.41564179999999995        5.2359686175872762E-006   5.3578243670686248E-009
 chl          23   1.8631607294827600E-015   5.7707002414842826E-014   3.2286562315070731E-002
 chl2c          24   3.7348402796863071E-002   3.7348402796863071E-002  0.57597492500000003        7.6091718546423293E-006   8.9021452934894392E-016
 chl          24   1.1975333198785891E-013   3.2063842900911715E-012   3.7348402796863071E-002
 chl2c          25   4.5426679235459781E-002   4.5426679235459781E-002  0.31406487500000002        3.8943877767998270E-006   4.0264184578649914E-009
 chl          25   2.6214026699933971E-015   5.7706235941348466E-014   4.5426679235459781E-002
 chl2c          26   4.7955660680174553E-002   4.7955660680174553E-002  0.49427735000000000        3.8943877767998270E-006   2.6684613047051167E-019
 chl          26   2.7672391877876752E-015   5.7704119775200705E-014   4.7955660680174553E-002
 chl2c          27   4.5333133499525620E-002   4.5333133499525620E-002  0.30964730000000001        3.8943877767998270E-006   3.4025342400189255E-018
 chl          27   2.6159085652418866E-015   5.7704119775202838E-014   4.5333133499525620E-002
 chl2c          28   3.1209236063453518E-002   3.1209236063453518E-002  0.28776342500000002        5.2359686175872762E-006   3.3813872908891976E-018
 chl          28   1.8009014958981014E-015   5.7704119775202826E-014   3.1209236063453518E-002
 chl2c          29   3.7743217595736761E-002   3.7743217595736761E-002  0.68676297499999994        7.6091718546423293E-006   9.0194481439846352E-016
 chl          29   1.2101938987352790E-013   3.2063877322212588E-012   3.7743217595736761E-002
 chl2c          30   2.5380056985171612E-002   2.5380056985171612E-002  0.38930277499999999        4.3582991015582382E-006   5.3519248730202399E-016
 chl          30   1.4645338481821661E-015   5.7704119775531838E-014   2.5380056985171612E-002
 chl2c          31   3.7576959810037038E-002   3.7576959810037038E-002  0.63559385000000002        7.6091718546423293E-006   9.0632306073186447E-016
 chl          31   1.2048617360431696E-013   3.2063842900918868E-012   3.7576959810037038E-002
 chl2c          32   2.0893126428578448E-002   2.0893126428578448E-002  0.24722667500000001        7.6091718546423293E-006   5.3549386383766695E-016
 chl          32   1.2089658568784718E-015   5.7864286659597303E-014   2.0893126428578448E-002
 chl2c          33  0.50336679107737770        3.7458922634011876E-002  0.60343137499999999        7.6091718546423293E-006   1.1548868883584431E-005
 chl          33   1.6449449480414056E-012   3.2678853217961775E-012  0.50336679107737770     
 chl2c          34   2.5350269098008315E-002   2.5350269098008315E-002  0.38241020000000003        4.3582991015582382E-006   5.2638640144045342E-016
 chl          34   1.4628149643732497E-015   5.7704119775524517E-014   2.5350269098008315E-002
 chl2c          35   2.5740370148566064E-002   2.5740370148566064E-002  0.49574644999999995        4.3582991015582382E-006   5.2801447630467403E-016
 chl          35   1.4853254021192264E-015   5.7704119775525855E-014   2.5740370148566064E-002
 chl2c          36   3.7770393924465726E-002   3.7770393924465726E-002  0.69587337500000002        7.6091718546423293E-006   7.6822612083990304E-016
 chl          36   1.2110639771001592E-013   3.2063842900926009E-012   3.7770393924465726E-002
 chl2c          37   2.1353674699533250E-002   2.1353674699533250E-002  0.33194060000000003        7.6091718546423293E-006   5.2568231797863393E-016
 chl          37   1.2321950025094418E-015   5.7704119775523936E-014   2.1353674699533250E-002
 chl2c          38   2.1543295686358745E-002   2.1543295686358745E-002  0.38455722500000000        7.6091718546423293E-006   5.3557830311601421E-016
 chl          38   1.2431369146453505E-015   5.7704119775532166E-014   2.1543295686358745E-002
 chl2c          39   2.5670077108751441E-002   2.5670077108751441E-002  0.47091117500000002        4.3582991015582382E-006   5.3111680073695664E-016
 chl          39   1.4812692041304436E-015   5.7704119775528430E-014   2.5670077108751441E-002
 chl2c          40  0.52183993361623393        3.7687445774703773E-002  0.66875547499999999        7.6091718546423293E-006   9.0374169252936091E-006
 chl          40   1.6979594552752689E-012   3.2537936365061026E-012  0.52183993361623393     
 chl2c          41  0.39311582466409695        2.5582381488167241E-002  0.44304987499999998        4.3582991015582382E-006   7.6008714251814374E-006
 chl          41   2.3142416619295203E-014   5.8869206395009789E-014  0.39311582466409695     
 chl2c          42  0.60827339141313930        3.7949995630725070E-002  0.76234377499999995        7.6091718546423293E-006   1.1450854876260981E-005
 chl          42   1.9870865411380649E-012   3.2667655189086445E-012  0.60827339141313930     
 chl2c          43  0.25806799542620201        2.1185090152268007E-002  0.29539925000000000        7.6091718546423293E-006   7.7692366212720041E-006
 chl          43   1.5248662699661669E-014   5.9087771323516282E-014  0.25806799542620201     
 chl2c          44  0.36406435619369421        3.7536352708156646E-002  0.62417262500000004        7.6091718546423293E-006   3.3238094430870711E-006
 chl          44   1.1719655973930743E-012   3.2191165585283223E-012  0.36406435619369421     
 chl2c          45   4.6544927192009838E-002   4.6544927192009838E-002  0.37662252499999999        3.8943877767998270E-006   3.5539124996956168E-019
 chl          45   2.6858340536157343E-015   5.7704119775200756E-014   4.6544927192009838E-002
 chl2c          46   3.7083195475449568E-002   3.7083195475449568E-002  0.51876034999999998        7.6091718546423293E-006   9.0626908633903380E-016
 chl          46   1.1890297541523685E-013   3.2063842905327551E-012   3.7083195475449568E-002
 chl2c          47   3.7519784612651236E-002   3.7519784612651236E-002  0.61962282499999999        7.6091718546423293E-006   9.0713889297232769E-016
 chl          47   1.2030284794962172E-013   3.2063842900914999E-012   3.7519784612651236E-002
 chl2c          48  0.55421431605831661        3.7823212136301673E-002  0.71424949999999998        7.6091718546423293E-006   9.4106497256929111E-006
 chl          48   1.8031489647436945E-012   3.2535228926745375E-012  0.55421431605831661     
 chl2c          49   3.7152990741888416E-002   3.7152990741888416E-002  0.53276120000000005        7.6091718546423293E-006   9.0023371223705152E-016
 chl          49   1.1912676584470094E-013   3.2063842900913650E-012   3.7152990741888416E-002
 chl2c          50   2.1533072915600981E-002   2.1533072915600981E-002  0.38132569999999999        7.6091718546423293E-006   5.2958625543580411E-016
 chl          50   1.2591567275812354E-015   5.8475477815753862E-014   2.1533072915600981E-002
 chl2c          51   2.0700971146093840E-002   2.0700971146093840E-002  0.22275920000000002        7.6091718546423293E-006   5.3668172513049452E-016
 chl          51   1.1945313184840534E-015   5.7704119775533087E-014   2.0700971146093840E-002
 chl2c          52  0.47926280733004484        3.7581825176985564E-002  0.63698869999999996        7.6091718546423293E-006   7.3639335115185655E-006
 chl          52   1.5542822223820685E-012   3.2430687268242587E-012  0.47926280733004484     
 chl2c          53  0.58794453379645684        3.7925801262726190E-002  0.75269794999999995        7.6091718546423293E-006   1.0219509668001975E-005
 chl          53   1.9190813264371802E-012   3.2640516513443011E-012  0.58794453379645684     
 chl2c          54   3.7082433371327092E-002   3.7082433371327092E-002  0.51861124999999997        7.6091718546423293E-006   8.9088562171545630E-016
 chl          54   1.1890053180017629E-013   3.2063842900911848E-012   3.7082433371327092E-002
 chl2c          55  0.31224582560562913        3.7357235588660491E-002  0.57808280000000001        7.6091718546423293E-006   2.5833229403344883E-006
 chl          55   1.0143118231243375E-012   3.2484399788435527E-012  0.31224582560562913     
 chl2c          56   3.7507394187257688E-002   3.7507394187257688E-002  0.61626080000000005        7.6091718546423293E-006   7.6822612083990304E-016
 chl          56   1.2026311948433359E-013   3.2063842900926009E-012   3.7507394187257688E-002
 chl2c          57   3.7727617852646313E-002   3.7727617852646313E-002  0.68163462500000005        7.6091718546423293E-006   9.1027988686080247E-016
 chl          57   1.2096924118530304E-013   3.2063842900915609E-012   3.7727617852646313E-002
 chl2c          58  0.55888580856590775        3.7765358178394853E-002  0.69416802499999997        7.6091718546423293E-006   1.0910744208897592E-005
 chl          58   1.8276289698630696E-012   3.2701295002511103E-012  0.55888580856590775     
 chl2c          59  0.46638808907126972        3.7173699120809672E-002  0.53705127500000005        7.6091718546423293E-006   1.3485820833563833E-005
 chl          59   1.5225996513878194E-012   3.2646623853962698E-012  0.46638808907126972     
 chl2c          60  0.54159478000393280        3.7607757740906807E-002  0.64452155000000000        7.6091718546423293E-006   1.2903007976879238E-005
 chl          60   1.7718159246724755E-012   3.2714789545416399E-012  0.54159478000393280     
 chl2c          61   3.7805373434125003E-002   3.7805373434125003E-002  0.70794139999999994        7.6091718546423293E-006   9.0288313382360942E-016
 chl          61   1.2121855546021779E-013   3.2063842900914167E-012   3.7805373434125003E-002
 chl2c          62  0.58514005484508602        3.7956103087269030E-002  0.76481592499999995        7.6091718546423293E-006   9.4762037651265171E-006
 chl          62   1.9050541504993633E-012   3.2557233686620898E-012  0.58514005484508602     
 chl2c          63  0.55006422982767589        3.7855601011927406E-002  0.72597904999999996        7.6091718546423293E-006   8.6365931359535031E-006
 chl          63   1.7979986881685567E-012   3.2687067994438280E-012  0.55006422982767589     
 chl2c          64   2.5708982294816416E-002   2.5708982294816416E-002  0.48435739999999999        4.3582991015582382E-006   5.2182429365420565E-016
 chl          64   1.4835141936468282E-015   5.7704119775520730E-014   2.5708982294816416E-002
 chl2c          65  0.60823513436079590        3.7953597170552002E-002  0.76379975000000000        7.6091718546423293E-006   1.1361811822222256E-005
 chl          65   1.9913262849996326E-012   3.2739415605978588E-012  0.60823513436079590     
 chl2c          66   3.1840477731474713E-002   3.1840477731474713E-002  0.35213202499999996        5.2359686175872762E-006   2.9227578671595814E-019
 chl          66   1.8373267407166285E-015   5.7704119775200731E-014   3.1840477731474713E-002
 chl2c          67   3.7937587124568600E-002   3.7937587124568600E-002  0.75736760000000003        7.6091718546423293E-006   8.9986069675968448E-016
 chl          67   1.2164248336018893E-013   3.2063842900913577E-012   3.7937587124568600E-002
 chl2c          68  0.58145696504012256        3.7855407263856986E-002  0.72590779999999999        7.6091718546423293E-006   1.1116968645800829E-005
 chl          68   1.9025231488034215E-012   3.2719930505469835E-012  0.58145696504012256     
 chl2c          69   2.1732330561541505E-002   2.1732330561541505E-002  0.45524217500000003        7.6091718546423293E-006   5.2717570198289310E-016
 chl          69   1.2540450057253470E-015   5.7704119775564276E-014   2.1732330561541505E-002
 chl2c          70   3.2658010878182209E-002   3.2658010878182209E-002  0.48694062500000002        5.2359686175872762E-006   4.1807063655656351E-018
 chl          70   1.8845017713345202E-015   5.7704119775203356E-014   3.2658010878182209E-002
 chl2c          71   4.3481058864416305E-002   4.3481058864416305E-002  0.23986107500000001        3.8943877767998270E-006   4.8339521848245355E-009
 chl          71   2.5091759909114351E-015   5.7707334100018325E-014   4.3481058864416305E-002
 chl2c          72  0.45024368065884834        3.7549776402781669E-002  0.62790522500000001        7.6091718546423293E-006   6.0541849935212570E-006
 chl          72   1.4564971507541662E-012   3.2349085913273720E-012  0.45024368065884834     
 chl2c          73   3.1852614277819484E-002   3.1852614277819484E-002  0.35362212500000001        5.2359686175872762E-006   3.6703945607118539E-019
 chl          73   1.8380270694405656E-015   5.7704119775200768E-014   3.1852614277819484E-002
 chl2c          74  0.54495122884006053        3.7616827685877569E-002  0.64719590000000005        7.6091718546423293E-006   1.3123815258299647E-005
 chl          74   1.7831725114802572E-012   3.2721689889125951E-012  0.54495122884006053     
 chl2c          75   3.7826830779512356E-002   3.7826830779512356E-002  0.71554212500000003        7.6091718546423293E-006   7.6822612083990304E-016
 chl          75   1.2128735595541967E-013   3.2063842900926009E-012   3.7826830779512356E-002
 chl2c          76   3.7257729557919804E-002   3.7257729557919804E-002  0.55513977500000000        7.6091718546423293E-006   7.6822612083990304E-016
 chl          76   1.1998191342768604E-013   3.2203227317210934E-012   3.7257729557919804E-002
 chl2c          77  0.45907370139028192        3.7138172437479272E-002  0.52973029999999999        7.6091718546423293E-006   1.3094589838906101E-005
 chl          77   1.4981859411240131E-012   3.2634976401105778E-012  0.45907370139028192     
 chl2c          78   4.7515248899399322E-002   4.7515248899399322E-002  0.45117492500000000        3.8943877767998270E-006   4.3155426648694377E-018
 chl          78   2.7418256136395425E-015   5.7704119775203457E-014   4.7515248899399322E-002
 prod   1.3269024149754376E-009   5.3667463946101188        10.000000000000000     
 chl2c           1  0.60826437499999997        3.7477407714772232E-002  0.60826437499999997        0.0000000000000000        1.1341490573514457E-005
 chl           1   1.1328064596675584E-015   1.8623587147735859E-015  0.60826437499999997     
 chl2c           2  0.48302390000000001        3.2640259920490348E-002  0.48302390000000001        0.0000000000000000        2.2673275673964755E-019
 chl           2   5.0228079652080470E-018   1.0398673782411278E-017  0.48302390000000001     
 chl2c           3  0.75128689999999998        3.7922212503796585E-002  0.75128689999999998        0.0000000000000000        7.9600758768322727E-016
 chl           3   1.3891931880944594E-015   1.8490848011518095E-015  0.75128689999999998     
 chl2c           4  0.77318742499999993        3.7976509103863923E-002  0.77318742499999993        0.0000000000000000        6.9052213124194361E-006
 chl           4   1.4408804839004519E-015   1.8635591285003790E-015  0.77318742499999993     
 chl2c           5  0.48489679999999996        2.5710500362372445E-002  0.48489679999999996        0.0000000000000000        5.3109683297226309E-016
 chl           5   5.0422836413563524E-018   1.0398673782455057E-017  0.48489679999999996     
 chl2c           6  0.29222855000000003        3.1261039902252048E-002  0.29222855000000003        0.0000000000000000        5.4543586179767697E-008
 chl           6   3.0396808802079095E-018   1.0401724541315040E-017  0.29222855000000003     
 chl2c           7  0.22770740000000000        4.3064391842467263E-002  0.22770740000000000        0.0000000000000000        2.2124455582932794E-019
 chl           7   2.3678619395790679E-018   1.0398704388083425E-017  0.22770740000000000     
 chl2c           8  0.49578364999999996        4.7969800906495587E-002  0.49578364999999996        0.0000000000000000        2.7923950325343346E-009
 chl           8   5.1556718974194522E-018   1.0399035743553569E-017  0.49578364999999996     
 chl2c           9  0.28700202499999999        2.4803669054600401E-002  0.28700202499999999        0.0000000000000000        2.2958010090023804E-006
 chl           9   3.0165994825058940E-018   1.0510725429571077E-017  0.28700202499999999     
 chl2c          10  0.39094662499999999        2.5387016219684602E-002  0.39094662499999999        0.0000000000000000        5.3502299919498521E-016
 chl          10   4.0653264197281078E-018   1.0398673782458431E-017  0.39094662499999999     
 chl2c          11  0.49737575000000001        2.1820572217820047E-002  0.49737575000000001        0.0000000000000000        5.3565116553606345E-016
 chl          11   5.1720481715542239E-018   1.0398673782455667E-017  0.49737575000000001     
 chl2c          12  0.30768942500000002        4.5290941298723353E-002  0.30768942500000002        0.0000000000000000        1.0701683891013525E-009
 chl          12   3.1995648810382806E-018   1.0398683286038447E-017  0.30768942500000002     
 chl2c          13  0.75666275000000005        3.7935816987997487E-002  0.75666275000000005        0.0000000000000000        8.9990689380497485E-006
 chl          13   1.4049229397174833E-015   1.8567359629074950E-015  0.75666275000000005     
 chl2c          14  0.39804095000000000        4.6856526101924839E-002  0.39804095000000000        0.0000000000000000        3.2185433238110517E-018
 chl          14   4.1390979910911950E-018   1.0398673782411571E-017  0.39804095000000000     
 chl2c          15  0.25607262500000000        2.0954299823745293E-002  0.25607262500000000        0.0000000000000000        5.3743075899084535E-016
 chl          15   2.6628156919936269E-018   1.0398673782461623E-017  0.25607262500000000     
 chl2c          16  0.71433214999999994        3.7823443882273475E-002  0.71433214999999994        0.0000000000000000        1.0124034290094020E-005
 chl          16   1.3287248102606311E-015   1.8600938096663173E-015  0.71433214999999994     
 chl2c          17  0.62580860000000005        3.7542254757581245E-002  0.62580860000000005        0.0000000000000000        7.9600758768322727E-016
 chl          17   1.1571731706900924E-015   1.8490848011518095E-015  0.62580860000000005     
 chl2c          18  0.47925950000000000        2.5694475239060960E-002  0.47925950000000000        0.0000000000000000        5.3640382740059495E-016
 chl          18   4.9836631976428600E-018   1.0398673782455768E-017  0.47925950000000000     
 chl2c          19  0.63367130000000005        3.7570220750293731E-002  0.63367130000000005        0.0000000000000000        9.4079287187969008E-006
 chl          19   1.1802378419229039E-015   1.8625395247076897E-015  0.63367130000000005     
 chl2c          20  0.50678202500000002        3.7020645196759419E-002  0.50678202500000002        0.0000000000000000        6.7685538938271762E-006
 chl          20   9.3894371399715934E-016   1.8527565455723482E-015  0.50678202500000002     
 chl2c          21  0.71973185000000006        3.7838475073783531E-002  0.71973185000000006        0.0000000000000000        1.2502173521956952E-005
 chl          21   1.3422169452808366E-015   1.8648847418393897E-015  0.71973185000000006     
 chl2c          22  0.64616892500000001        3.7613353106285476E-002  0.64616892500000001        0.0000000000000000        1.0654448971219312E-006
 chl          22   1.2012018949490744E-015   1.8589595514037979E-015  0.64616892500000001     
 chl2c          23  0.41564179999999995        3.2286562315070731E-002  0.41564179999999995        0.0000000000000000        4.5383035292777433E-009
 chl          23   4.3222835415097053E-018   1.0399058856711971E-017  0.41564179999999995     
 chl2c          24  0.57597492500000003        3.7348402796863071E-002  0.57597492500000003        0.0000000000000000        9.0238493369983158E-016
 chl          24   1.0650264796618701E-015   1.8490848011514912E-015  0.57597492500000003     
 chl2c          25  0.31406487500000002        4.5426679235459781E-002  0.31406487500000002        0.0000000000000000        3.4399887234708940E-009
 chl          25   3.2659469593314627E-018   1.0398956455514048E-017  0.31406487500000002     
 chl2c          26  0.49427735000000000        4.7955660680174553E-002  0.49427735000000000        0.0000000000000000        2.2372164222523402E-019
 chl          26   5.1398289206847228E-018   1.0398673782411278E-017  0.49427735000000000     
 chl2c          27  0.30964730000000001        4.5333133499525620E-002  0.30964730000000001        0.0000000000000000        3.1906756144273546E-018
 chl          27   3.2199212603045296E-018   1.0398673782411568E-017  0.30964730000000001     
 chl2c          28  0.28776342500000002        3.1209236063453518E-002  0.28776342500000002        0.0000000000000000        3.1708406571865693E-018
 chl          28   2.9923579830844572E-018   1.0398673782411566E-017  0.28776342500000002     
 chl2c          29  0.68676297499999994        3.7743217595736761E-002  0.68676297499999994        0.0000000000000000        9.1230588827442532E-016
 chl          29   1.2698833828082281E-015   1.8490853890430367E-015  0.68676297499999994     
 chl2c          30  0.38930277499999999        2.5380056985171612E-002  0.38930277499999999        0.0000000000000000        5.3791909450209500E-016
 chl          30   4.0482325598298566E-018   1.0398673782455973E-017  0.38930277499999999     
 chl2c          31  0.63559385000000002        3.7576959810037038E-002  0.63559385000000002        0.0000000000000000        9.1599790544718580E-016
 chl          31   1.1752669277404405E-015   1.8490848011516166E-015  0.63559385000000002     
 chl2c          32  0.24722667500000001        2.0893126428578448E-002  0.24722667500000001        0.0000000000000000        5.3817025358279914E-016
 chl          32   2.5761733326555990E-018   1.0420288719474139E-017  0.24722667500000001     
 chl2c          33  0.60343137499999999        3.7458922634011876E-002  0.60343137499999999        0.0000000000000000        9.8856041789084322E-006
 chl          33   1.1241325308011700E-015   1.8629003684158287E-015  0.60343137499999999     
 chl2c          34  0.38241020000000003        2.5350269098008315E-002  0.38241020000000003        0.0000000000000000        5.3055954380602043E-016
 chl          34   3.9765589208833680E-018   1.0398673782454986E-017  0.38241020000000003     
 chl2c          35  0.49574644999999995        2.5740370148566064E-002  0.49574644999999995        0.0000000000000000        5.3192324816759186E-016
 chl          35   5.1551056123602205E-018   1.0398673782455166E-017  0.49574644999999995     
 chl2c          36  0.69587337500000002        3.7770393924465726E-002  0.69587337500000002        0.0000000000000000        7.9600758768322727E-016
 chl          36   1.2867288812387137E-015   1.8490848011518095E-015  0.69587337500000002     
 chl2c          37  0.33194060000000003        2.1353674699533250E-002  0.33194060000000003        0.0000000000000000        5.2996935576670893E-016
 chl          37   3.4517420145523511E-018   1.0398673782454906E-017  0.33194060000000003     
 chl2c          38  0.38455722500000000        2.1543295686358745E-002  0.38455722500000000        0.0000000000000000        5.3824061472036117E-016
 chl          38   3.9988851334615394E-018   1.0398673782456016E-017  0.38455722500000000     
 chl2c          39  0.47091117500000002        2.5670077108751441E-002  0.47091117500000002        0.0000000000000000        5.3451793982690502E-016
 chl          39   4.8968516893378203E-018   1.0398673782455513E-017  0.47091117500000002     
 chl2c          40  0.66875547499999999        3.7687445774703773E-002  0.66875547499999999        0.0000000000000000        1.0112352323295788E-005
 chl          40   1.2437086598938253E-015   1.8597360416284074E-015  0.66875547499999999     
 chl2c          41  0.44304987499999998        2.5582381488167241E-002  0.44304987499999998        0.0000000000000000        7.4996772980292573E-006
 chl          41   4.6767948518469875E-018   1.0555910554871476E-017  0.44304987499999998     
 chl2c          42  0.76234377499999995        3.7949995630725070E-002  0.76234377499999995        0.0000000000000000        1.2108350828844128E-005
 chl          42   1.4199774383661163E-015   1.8626471218527579E-015  0.76234377499999995     
 chl2c          43  0.29539925000000000        2.1185090152268007E-002  0.29539925000000000        0.0000000000000000        7.1258184910636095E-006
 chl          43   3.1269049279956136E-018   1.0585351614791214E-017  0.29539925000000000     
 chl2c          44  0.62417262500000004        3.7536352708156646E-002  0.62417262500000004        0.0000000000000000        5.6246088234360354E-006
 chl          44   1.1559338285765819E-015   1.8519457314818666E-015  0.62417262500000004     
 chl2c          45  0.37662252499999999        4.6544927192009838E-002  0.37662252499999999        0.0000000000000000        2.9796489573060277E-019
 chl          45   3.9163747765830392E-018   1.0398673782411287E-017  0.37662252499999999     
 chl2c          46  0.51876034999999998        3.7083195475449568E-002  0.51876034999999998        0.0000000000000000        9.1595242675007981E-016
 chl          46   9.5923187865928224E-016   1.8490848012175224E-015  0.51876034999999998     
 chl2c          47  0.61962282499999999        3.7519784612651236E-002  0.61962282499999999        0.0000000000000000        9.1668521459927423E-016
 chl          47   1.1457351481540959E-015   1.8490848011515649E-015  0.61962282499999999     
 chl2c          48  0.71424949999999998        3.7823212136301673E-002  0.71424949999999998        0.0000000000000000        1.0788248008100014E-005
 chl          48   1.3282721005522669E-015   1.8596752263071476E-015  0.71424949999999998     
 chl2c          49  0.53276120000000005        3.7152990741888416E-002  0.53276120000000005        0.0000000000000000        9.1086136970614529E-016
 chl          49   9.8512063756325324E-016   1.8490848011515350E-015  0.53276120000000005     
 chl2c          50  0.38132569999999999        2.1533072915600981E-002  0.38132569999999999        0.0000000000000000        5.3323846969675481E-016
 chl          50   4.0049622809215905E-018   1.0502733702243491E-017  0.38132569999999999     
 chl2c          51  0.22275920000000002        2.0700971146093840E-002  0.22275920000000002        0.0000000000000000        5.3915973721589255E-016
 chl          51   2.3164002528409043E-018   1.0398673782456141E-017  0.22275920000000002     
 chl2c          52  0.63698869999999996        3.7581825176985564E-002  0.63698869999999996        0.0000000000000000        8.9249123892080862E-006
 chl          52   1.1830968729664057E-015   1.8573278819018389E-015  0.63698869999999996     
 chl2c          53  0.75269794999999995        3.7925801262726190E-002  0.75269794999999995        0.0000000000000000        1.0837438052558695E-005
 chl          53   1.4015518639668911E-015   1.8620375729293421E-015  0.75269794999999995     
 chl2c          54  0.51861124999999997        3.7082433371327092E-002  0.51861124999999997        0.0000000000000000        9.0295366597763388E-016
 chl          54   9.5895618008117793E-016   1.8490848011514943E-015  0.51861124999999997     
 chl2c          55  0.57808280000000001        3.7357235588660491E-002  0.57808280000000001        0.0000000000000000        3.3079129725680054E-007
 chl          55   1.0743852860289745E-015   1.8585318332062024E-015  0.57808280000000001     
 chl2c          56  0.61626080000000005        3.7507394187257688E-002  0.61626080000000005        0.0000000000000000        7.9600758768322727E-016
 chl          56   1.1395184788256552E-015   1.8490848011518095E-015  0.61626080000000005     
 chl2c          57  0.68163462500000005        3.7727617852646313E-002  0.68163462500000005        0.0000000000000000        9.1932947815630662E-016
 chl          57   1.2604002250261558E-015   1.8490848011515783E-015  0.68163462500000005     
 chl2c          58  0.69416802499999997        3.7765358178394853E-002  0.69416802499999997        0.0000000000000000        1.0287733928649949E-005
 chl          58   1.2935139943381067E-015   1.8634018677799323E-015  0.69416802499999997     
 chl2c          59  0.53705127500000005        3.7173699120809672E-002  0.53705127500000005        0.0000000000000000        1.3118075283739580E-005
 chl          59   1.0000854113359952E-015   1.8621786371068480E-015  0.53705127500000005     
 chl2c          60  0.64452155000000000        3.7607757740906807E-002  0.64452155000000000        0.0000000000000000        1.2183356816293655E-005
 chl          60   1.2011988822759876E-015   1.8637063140495267E-015  0.64452155000000000     
 chl2c          61  0.70794139999999994        3.7805373434125003E-002  0.70794139999999994        0.0000000000000000        9.1309763694129185E-016
 chl          61   1.3090436828459473E-015   1.8490848011515464E-015  0.70794139999999994     
 chl2c          62  0.76481592499999995        3.7956103087269030E-002  0.76481592499999995        0.0000000000000000        1.0791744283182266E-005
 chl          62   1.4226865882730116E-015   1.8601686258991163E-015  0.76481592499999995     
 chl2c          63  0.72597904999999996        3.7855601011927406E-002  0.72597904999999996        0.0000000000000000        6.9061876134665888E-006
 chl          63   1.3525580688507143E-015   1.8630814055181266E-015  0.72597904999999996     
 chl2c          64  0.48435739999999999        2.5708982294816416E-002  0.48435739999999999        0.0000000000000000        5.2673073438946243E-016
 chl          64   5.0366745967178149E-018   1.0398673782454474E-017  0.48435739999999999     
 chl2c          65  0.76379975000000000        3.7953597170552002E-002  0.76379975000000000        0.0000000000000000        1.1342278037997486E-005
 chl          65   1.4239183191093210E-015   1.8642560685694398E-015  0.76379975000000000     
 chl2c          66  0.35213202499999996        3.1840477731474713E-002  0.35213202499999996        0.0000000000000000        2.4504348885170087E-019
 chl          66   3.6617060563148946E-018   1.0398673782411284E-017  0.35213202499999996     
 chl2c          67  0.75736760000000003        3.7937587124568600E-002  0.75736760000000003        0.0000000000000000        9.1054634855019341E-016
 chl          67   1.4004369180446141E-015   1.8490848011515334E-015  0.75736760000000003     
 chl2c          68  0.72590779999999999        3.7855407263856986E-002  0.72590779999999999        0.0000000000000000        1.0686320380382021E-005
 chl          68   1.3529610980666435E-015   1.8638194796455467E-015  0.72590779999999999     
 chl2c          69  0.45524217500000003        2.1732330561541505E-002  0.45524217500000003        0.0000000000000000        5.3122085119891063E-016
 chl          69   4.7339148698423844E-018   1.0398673782459597E-017  0.45524217500000003     
 chl2c          70  0.48694062500000002        3.2658010878182209E-002  0.48694062500000002        0.0000000000000000        3.9206096586628571E-018
 chl          70   5.0635367107786364E-018   1.0398673782411637E-017  0.48694062500000002     
 chl2c          71  0.23986107500000001        4.3481058864416305E-002  0.23986107500000001        0.0000000000000000        3.9009702262976608E-009
 chl          71   2.4943401038683012E-018   1.0399103330410326E-017  0.23986107500000001     
 chl2c          72  0.62790522500000001        3.7549776402781669E-002  0.62790522500000001        0.0000000000000000        7.8874642577862885E-006
 chl          72   1.1650748645690363E-015   1.8554947756152792E-015  0.62790522500000001     
 chl2c          73  0.35362212500000001        3.1852614277819484E-002  0.35362212500000001        0.0000000000000000        3.0773196299854591E-019
 chl          73   3.6772011201180669E-018   1.0398673782411287E-017  0.35362212500000001     
 chl2c          74  0.64719590000000005        3.7616827685877569E-002  0.64719590000000005        0.0000000000000000        1.2389202018850839E-005
 chl          74   1.2062832907475715E-015   1.8638611442803814E-015  0.64719590000000005     
 chl2c          75  0.71554212500000003        3.7826830779512356E-002  0.71554212500000003        0.0000000000000000        7.9600758768322727E-016
 chl          75   1.3230980679213682E-015   1.8490848011518095E-015  0.71554212500000003     
 chl2c          76  0.55513977500000000        3.7257729557919804E-002  0.55513977500000000        0.0000000000000000        7.9600758768322727E-016
 chl          76   1.0282381174191290E-015   1.8522148181854362E-015  0.55513977500000000     
 chl2c          77  0.52973029999999999        3.7138172437479272E-002  0.52973029999999999        0.0000000000000000        1.2693939056630731E-005
 chl          77   9.8631395516943147E-016   1.8619171966742916E-015  0.52973029999999999     
 chl2c          78  0.45117492500000000        4.7515248899399322E-002  0.45117492500000000        0.0000000000000000        4.0470957100248033E-018
 chl          78   4.6916208638790428E-018   1.0398673782411651E-017  0.45117492500000000     
 prod   1.1123771958567396E-009   0.0000000000000000        10.000000000000000     
 chl2c           1  0.60826437499999997        3.7477407714772232E-002  0.60826437499999997        0.0000000000000000        1.1191962189770556E-005
 chl           1   1.1506973561023736E-019   1.8917717416910592E-019  0.60826437499999997     
 chl2c           2  0.48302390000000001        3.2640259920490348E-002  0.48302390000000001        0.0000000000000000        2.1415094893622996E-019
 chl           2   7.3957619898146796E-021   1.5311378981070461E-020  0.48302390000000001     
 chl2c           3  0.75128689999999998        3.7922212503796585E-002  0.75128689999999998        0.0000000000000000        8.1690814514559082E-016
 chl           3   1.4161997660127204E-019   1.8850318912957493E-019  0.75128689999999998     
 chl2c           4  0.77318742499999993        3.7976509103863923E-002  0.77318742499999993        0.0000000000000000        4.7548631653307673E-006
 chl           4   1.4631634252677548E-019   1.8923787143431038E-019  0.77318742499999993     
 chl2c           5  0.48489679999999996        2.5710500362372445E-002  0.48489679999999996        0.0000000000000000        5.3399201086520248E-016
 chl           5   7.4244386715089372E-021   1.5311378981071722E-020  0.48489679999999996     
 chl2c           6  0.29222855000000003        3.1261039902252048E-002  0.29222855000000003        0.0000000000000000        5.3200399986381287E-008
 chl           6   4.4744477427371517E-021   1.5311466804790808E-020  0.29222855000000003     
 chl2c           7  0.22770740000000000        4.3064391842467263E-002  0.22770740000000000        0.0000000000000000        2.0896718263157549E-019
 chl           7   3.4865144978746941E-021   1.5311379857987462E-020  0.22770740000000000     
 chl2c           8  0.49578364999999996        4.7969800906495587E-002  0.49578364999999996        0.0000000000000000        1.9914277063070327E-009
 chl           8   7.5911364914244847E-021   1.5311389335700128E-020  0.49578364999999996     
 chl2c           9  0.28700202499999999        2.4803669054600401E-002  0.28700202499999999        0.0000000000000000        4.2554232002376137E-007
 chl           9   4.3953232495112044E-021   1.5314607099065606E-020  0.28700202499999999     
 chl2c          10  0.39094662499999999        2.5387016219684602E-002  0.39094662499999999        0.0000000000000000        5.3736844993744321E-016
 chl          10   5.9859319367459651E-021   1.5311378981071815E-020  0.39094662499999999     
 chl2c          11  0.49737575000000001        2.1820572217820047E-002  0.49737575000000001        0.0000000000000000        5.3790812322984873E-016
 chl          11   7.6155086042447928E-021   1.5311378981071740E-020  0.49737575000000001     
 chl2c          12  0.30768942500000002        4.5290941298723353E-002  0.30768942500000002        0.0000000000000000        1.7250432317130187E-009
 chl          12   4.7111494781760453E-021   1.5311379252556518E-020  0.30768942500000002     
 chl2c          13  0.75666275000000005        3.7935816987997487E-002  0.75666275000000005        0.0000000000000000        1.0344080010139245E-005
 chl          13   1.4292734530155438E-019   1.8889174245931146E-019  0.75666275000000005     
 chl2c          14  0.39804095000000000        4.6856526101924839E-002  0.39804095000000000        0.0000000000000000        3.0425197425331101E-018
 chl          14   6.0945558354353223E-021   1.5311378981070470E-020  0.39804095000000000     
 chl2c          15  0.25607262500000000        2.0954299823745293E-002  0.25607262500000000        0.0000000000000000        5.3943629541928797E-016
 chl          15   3.9208250080529053E-021   1.5311378981071893E-020  0.25607262500000000     
 chl2c          16  0.71433214999999994        3.7823443882273475E-002  0.71433214999999994        0.0000000000000000        1.0670181907600829E-005
 chl          16   1.3505319566404054E-019   1.8906218299714015E-019  0.71433214999999994     
 chl2c          17  0.62580860000000005        3.7542254757581245E-002  0.62580860000000005        0.0000000000000000        8.1690814514559082E-016
 chl          17   1.1796691688471451E-019   1.8850318912957493E-019  0.62580860000000005     
 chl2c          18  0.47925950000000000        2.5694475239060960E-002  0.47925950000000000        0.0000000000000000        5.3855457430962040E-016
 chl          18   7.3381238347789509E-021   1.5311378981071740E-020  0.47925950000000000     
 chl2c          19  0.63367130000000005        3.7570220750293731E-002  0.63367130000000005        0.0000000000000000        7.8626430686830464E-006
 chl          19   1.1988193101965395E-019   1.8918630371874812E-019  0.63367130000000005     
 chl2c          20  0.50678202500000002        3.7020645196759419E-002  0.50678202500000002        0.0000000000000000        8.6645702273862704E-006
 chl          20   9.5624557769920179E-020   1.8868971876009252E-019  0.50678202500000002     
 chl2c          21  0.71973185000000006        3.7838475073783531E-002  0.71973185000000006        0.0000000000000000        1.1498447295824822E-005
 chl          21   1.3624906162881584E-019   1.8930531089990785E-019  0.71973185000000006     
 chl2c          22  0.64616892500000001        3.7613353106285476E-002  0.64616892500000001        0.0000000000000000        8.1690814514559082E-016
 chl          22   1.2212871189811326E-019   1.8900431013161652E-019  0.64616892500000001     
 chl2c          23  0.41564179999999995        3.2286562315070731E-002  0.41564179999999995        0.0000000000000000        4.1866502099130878E-009
 chl          23   6.3640536974354917E-021   1.5311389993584602E-020  0.41564179999999995     
 chl2c          24  0.57597492500000003        3.7348402796863071E-002  0.57597492500000003        0.0000000000000000        9.1112422629032985E-016
 chl          24   1.0857311022115845E-019   1.8850318912955882E-019  0.57597492500000003     
 chl2c          25  0.31406487500000002        4.5426679235459781E-002  0.31406487500000002        0.0000000000000000        3.1857063730295034E-009
 chl          25   4.8087688645904904E-021   1.5311387064823757E-020  0.31406487500000002     
 chl2c          26  0.49427735000000000        4.7955660680174553E-002  0.49427735000000000        0.0000000000000000        2.1130686248443010E-019
 chl          26   7.5680678276092082E-021   1.5311378981070461E-020  0.49427735000000000     
 chl2c          27  0.30964730000000001        4.5333133499525620E-002  0.30964730000000001        0.0000000000000000        3.0161689295975522E-018
 chl          27   4.7411271607652222E-021   1.5311378981070470E-020  0.30964730000000001     
 chl2c          28  0.28776342500000002        3.1209236063453518E-002  0.28776342500000002        0.0000000000000000        2.9974137062664498E-018
 chl          28   4.4060548570658487E-021   1.5311378981070470E-020  0.28776342500000002     
 chl2c          29  0.68676297499999994        3.7743217595736761E-002  0.68676297499999994        0.0000000000000000        9.1971919219456729E-016
 chl          29   1.2945702803895175E-019   1.8850321399308366E-019  0.68676297499999994     
 chl2c          30  0.38930277499999999        2.5380056985171612E-002  0.38930277499999999        0.0000000000000000        5.3985546781312541E-016
 chl          30   5.9607623264079049E-021   1.5311378981071752E-020  0.38930277499999999     
 chl2c          31  0.63559385000000002        3.7576959810037038E-002  0.63559385000000002        0.0000000000000000        9.2291119700232641E-016
 chl          31   1.1981146771613793E-019   1.8850318912956429E-019  0.63559385000000002     
 chl2c          32  0.24722667500000001        2.0893126428578448E-002  0.24722667500000001        0.0000000000000000        5.4007102921039543E-016
 chl          32   3.7855351967567606E-021   1.5312001412294043E-020  0.24722667500000001     
 chl2c          33  0.60343137499999999        3.7458922634011876E-002  0.60343137499999999        0.0000000000000000        7.7237265227281363E-006
 chl          33   1.1417203312849948E-019   1.8920466826654396E-019  0.60343137499999999     
 chl2c          34  0.38241020000000003        2.5350269098008315E-002  0.38241020000000003        0.0000000000000000        5.3352947182304129E-016
 chl          34   5.8552274984274342E-021   1.5311378981071722E-020  0.38241020000000003     
 chl2c          35  0.49574644999999995        2.5740370148566064E-002  0.49574644999999995        0.0000000000000000        5.3470321998456643E-016
 chl          35   7.5905617744709233E-021   1.5311378981071725E-020  0.49574644999999995     
 chl2c          36  0.69587337500000002        3.7770393924465726E-002  0.69587337500000002        0.0000000000000000        8.1690814514559082E-016
 chl          36   1.3117435041786062E-019   1.8850318912957493E-019  0.69587337500000002     
 chl2c          37  0.33194060000000003        2.1353674699533250E-002  0.33194060000000003        0.0000000000000000        5.3302125499191733E-016
 chl          37   5.0824683258043342E-021   1.5311378981071716E-020  0.33194060000000003     
 chl2c          38  0.38455722500000000        2.1543295686358745E-002  0.38455722500000000        0.0000000000000000        5.4013141477726730E-016
 chl          38   5.8881014118842808E-021   1.5311378981071752E-020  0.38455722500000000     
 chl2c          39  0.47091117500000002        2.5670077108751441E-002  0.47091117500000002        0.0000000000000000        5.3693443822237583E-016
 chl          39   7.2102994668467944E-021   1.5311378981071737E-020  0.47091117500000002     
 chl2c          40  0.66875547499999999        3.7687445774703773E-002  0.66875547499999999        0.0000000000000000        1.0663620998150654E-005
 chl          40   1.2642424235960106E-019   1.8904404836401683E-019  0.66875547499999999     
 chl2c          41  0.44304987499999998        2.5582381488167241E-002  0.44304987499999998        0.0000000000000000        7.2845536303618722E-006
 chl          41   6.7857109148432537E-021   1.5315907525858696E-020  0.44304987499999998     
 chl2c          42  0.76234377499999995        3.7949995630725070E-002  0.76234377499999995        0.0000000000000000        1.2277887619370670E-005
 chl          42   1.4422917564416850E-019   1.8919177984258939E-019  0.76234377499999995     
 chl2c          43  0.29539925000000000        2.1185090152268007E-002  0.29539925000000000        0.0000000000000000        6.0498575904227575E-006
 chl          43   4.5245577422347216E-021   1.5316754332432197E-020  0.29539925000000000     
 chl2c          44  0.62417262500000004        3.7536352708156646E-002  0.62417262500000004        0.0000000000000000        7.6861383822313726E-006
 chl          44   1.1774921868962136E-019   1.8864848276487829E-019  0.62417262500000004     
 chl2c          45  0.37662252499999999        4.6544927192009838E-002  0.37662252499999999        0.0000000000000000        2.8143230787849457E-019
 chl          45   5.7666102130826842E-021   1.5311378981070461E-020  0.37662252499999999     
 chl2c          46  0.51876034999999998        3.7083195475449568E-002  0.51876034999999998        0.0000000000000000        9.2287189888997824E-016
 chl          46   9.7787980370267075E-020   1.8850318913206663E-019  0.51876034999999998     
 chl2c          47  0.61962282499999999        3.7519784612651236E-002  0.61962282499999999        0.0000000000000000        9.2350503578506155E-016
 chl          47   1.1680087856996885E-019   1.8850318912956256E-019  0.61962282499999999     
 chl2c          48  0.71424949999999998        3.7823212136301673E-002  0.71424949999999998        0.0000000000000000        1.1546396934890367E-005
 chl          48   1.3502242376308863E-019   1.8904097764589073E-019  0.71424949999999998     
 chl2c          49  0.53276120000000005        3.7152990741888416E-002  0.53276120000000005        0.0000000000000000        9.1846934464450657E-016
 chl          49   1.0042718524449190E-019   1.8850318912956104E-019  0.53276120000000005     
 chl2c          50  0.38132569999999999        2.1533072915600981E-002  0.38132569999999999        0.0000000000000000        5.3583452747723165E-016
 chl          50   5.8397647263501022E-021   1.5314374893562385E-020  0.38132569999999999     
 chl2c          51  0.22275920000000002        2.0700971146093840E-002  0.22275920000000002        0.0000000000000000        5.4092011406649425E-016
 chl          51   3.4107505327203598E-021   1.5311378981071755E-020  0.22275920000000002     
 chl2c          52  0.63698869999999996        3.7581825176985564E-002  0.63698869999999996        0.0000000000000000        9.9355288666550194E-006
 chl          52   1.2034106054848950E-019   1.8892181375978807E-019  0.63698869999999996     
 chl2c          53  0.75269794999999995        3.7925801262726190E-002  0.75269794999999995        0.0000000000000000        1.1037375534398215E-005
 chl          53   1.4238095121334393E-019   1.8916080642088096E-019  0.75269794999999995     
 chl2c          54  0.51861124999999997        3.7082433371327092E-002  0.51861124999999997        0.0000000000000000        9.1161764460349212E-016
 chl          54   9.7759874543466998E-020   1.8850318912955899E-019  0.51861124999999997     
 chl2c          55  0.57808280000000001        3.7357235588660491E-002  0.57808280000000001        0.0000000000000000        9.2509034283182798E-016
 chl          55   1.0924759989329526E-019   1.8898261614650231E-019  0.57808280000000001     
 chl2c          56  0.61626080000000005        3.7507394187257688E-002  0.61626080000000005        0.0000000000000000        8.1690814514559082E-016
 chl          56   1.1616712613554317E-019   1.8850318912957493E-019  0.61626080000000005     
 chl2c          57  0.68163462500000005        3.7727617852646313E-002  0.68163462500000005        0.0000000000000000        9.2578856831036670E-016
 chl          57   1.2849030063363392E-019   1.8850318912956325E-019  0.68163462500000005     
 chl2c          58  0.69416802499999997        3.7765358178394853E-002  0.69416802499999997        0.0000000000000000        9.1533337172895187E-006
 chl          58   1.3135743804490358E-019   1.8923003266378278E-019  0.69416802499999997     
 chl2c          59  0.53705127500000005        3.7173699120809672E-002  0.53705127500000005        0.0000000000000000        1.2712095216632858E-005
 chl          59   1.0159298575576921E-019   1.8916813065152708E-019  0.53705127500000005     
 chl2c          60  0.64452155000000000        3.7607757740906807E-002  0.64452155000000000        0.0000000000000000        1.1065295288092892E-005
 chl          60   1.2197284784855993E-019   1.8924556959896831E-019  0.64452155000000000     
 chl2c          61  0.70794139999999994        3.7805373434125003E-002  0.70794139999999994        0.0000000000000000        9.2040401062684563E-016
 chl          61   1.3344921161684664E-019   1.8850318912956164E-019  0.70794139999999994     
 chl2c          62  0.76481592499999995        3.7956103087269030E-002  0.76481592499999995        0.0000000000000000        1.1499411206989205E-005
 chl          62   1.4460068186538090E-019   1.8906599240252601E-019  0.76481592499999995     
 chl2c          63  0.72597904999999996        3.7855601011927406E-002  0.72597904999999996        0.0000000000000000        4.7559484602561492E-006
 chl          63   1.3736515973221411E-019   1.8921366908895527E-019  0.72597904999999996     
 chl2c          64  0.48435739999999999        2.5708982294816416E-002  0.48435739999999999        0.0000000000000000        5.3022980537030657E-016
 chl          64   7.4161797136865409E-021   1.5311378981071707E-020  0.48435739999999999     
 chl2c          65  0.76379975000000000        3.7953597170552002E-002  0.76379975000000000        0.0000000000000000        1.1204601522220913E-005
 chl          65   1.4456692846949993E-019   1.8927333829253010E-019  0.76379975000000000     
 chl2c          66  0.35213202499999996        3.1840477731474713E-002  0.35213202499999996        0.0000000000000000        2.3144601251406580E-019
 chl          66   5.3916268861467776E-021   1.5311378981070461E-020  0.35213202499999996     
 chl2c          67  0.75736760000000003        3.7937587124568600E-002  0.75736760000000003        0.0000000000000000        9.1819670526744634E-016
 chl          67   1.4276620794340168E-019   1.8850318912956097E-019  0.75736760000000003     
 chl2c          68  0.72590779999999999        3.7855407263856986E-002  0.72590779999999999        0.0000000000000000        9.8024481926020387E-006
 chl          68   1.3737892575256669E-019   1.8925120483974233E-019  0.72590779999999999     
 chl2c          69  0.45524217500000003        2.1732330561541505E-002  0.45524217500000003        0.0000000000000000        5.3409875818361717E-016
 chl          69   6.9703854695924290E-021   1.5311378981071839E-020  0.45524217500000003     
 chl2c          70  0.48694062500000002        3.2658010878182209E-002  0.48694062500000002        0.0000000000000000        3.7064126527650458E-018
 chl          70   7.4557324506543193E-021   1.5311378981070473E-020  0.48694062500000002     
 chl2c          71  0.23986107500000001        4.3481058864416305E-002  0.23986107500000001        0.0000000000000000        3.5136754567925586E-009
 chl          71   3.6726067694616307E-021   1.5311391268723492E-020  0.23986107500000001     
 chl2c          72  0.62790522500000001        3.7549776402781669E-002  0.62790522500000001        0.0000000000000000        9.2213425616361758E-006
 chl          72   1.1856655298867570E-019   1.8882874081622064E-019  0.62790522500000001     
 chl2c          73  0.35362212500000001        3.1852614277819484E-002  0.35362212500000001        0.0000000000000000        2.9065773518483450E-019
 chl          73   5.4144423719664716E-021   1.5311378981070461E-020  0.35362212500000001     
 chl2c          74  0.64719590000000005        3.7616827685877569E-002  0.64719590000000005        0.0000000000000000        1.1274148523481349E-005
 chl          74   1.2248404250912528E-019   1.8925342776294671E-019  0.64719590000000005     
 chl2c          75  0.71554212500000003        3.7826830779512356E-002  0.71554212500000003        0.0000000000000000        8.1690814514559082E-016
 chl          75   1.3488197251905296E-019   1.8850318912957493E-019  0.71554212500000003     
 chl2c          76  0.55513977500000000        3.7257729557919804E-002  0.55513977500000000        0.0000000000000000        8.1690814514559082E-016
 chl          76   1.0473375408909889E-019   1.8866195290924504E-019  0.55513977500000000     
 chl2c          77  0.52973029999999999        3.7138172437479272E-002  0.52973029999999999        0.0000000000000000        1.2072538274964266E-005
 chl          77   1.0020106030659564E-019   1.8915485919267908E-019  0.52973029999999999     
 chl2c          78  0.45117492500000000        4.7515248899399322E-002  0.45117492500000000        0.0000000000000000        3.8260297655778474E-018
 chl          78   6.9081102634310471E-021   1.5311378981070473E-020  0.45117492500000000     
 prod   1.0506253938209795E-009   0.0000000000000000        10.000000000000000     
 chl2c           1  0.60826437499999997        3.7477407714772232E-002  0.60826437499999997        0.0000000000000000        1.0666688021941804E-005
 chl           1   9.0917973804437108E-021   1.4947114699005201E-020  0.60826437499999997     
 chl2c           2  0.48302390000000001        3.2640259920490348E-002  0.48302390000000001        0.0000000000000000        2.0567757428295731E-019
 chl           2   7.2153251544052808E-021   1.4937822236964426E-020  0.48302390000000001     
 chl2c           3  0.75128689999999998        3.7922212503796585E-002  0.75128689999999998        0.0000000000000000        8.5758721369409255E-016
 chl           3   1.1229554865930856E-020   1.4947092603279594E-020  0.75128689999999998     
 chl2c           4  0.77318742499999993        3.7976509103863923E-002  0.77318742499999993        0.0000000000000000        7.5664437597571358E-007
 chl           4   1.1556922658572809E-020   1.4947116682055207E-020  0.77318742499999993     
 chl2c           5  0.48489679999999996        2.5710500362372445E-002  0.48489679999999996        0.0000000000000000        5.3790858033632489E-016
 chl           5   7.2433022016728914E-021   1.4937822236964426E-020  0.48489679999999996     
 chl2c           6  0.29222855000000003        3.1261039902252048E-002  0.29222855000000003        0.0000000000000000        4.7834542663823311E-008
 chl           6   4.3652581329584866E-021   1.4937822238650147E-020  0.29222855000000003     
 chl2c           7  0.22770740000000000        4.3064391842467263E-002  0.22770740000000000        0.0000000000000000        2.0069884089168286E-019
 chl           7   3.4014526632451740E-021   1.4937822236981205E-020  0.22770740000000000     
 chl2c           8  0.49578364999999996        4.7969800906495587E-002  0.49578364999999996        0.0000000000000000        4.8831469094499258E-010
 chl           8   7.4059280317914817E-021   1.4937822237162282E-020  0.49578364999999996     
 chl2c           9  0.28700202499999999        2.4803669054600401E-002  0.28700202499999999        0.0000000000000000        5.4052546375781372E-016
 chl           9   4.2871852488926396E-021   1.4937822298963360E-020  0.28700202499999999     
 chl2c          10  0.39094662499999999        2.5387016219684602E-002  0.39094662499999999        0.0000000000000000        5.4053455240145135E-016
 chl          10   5.8398911883911922E-021   1.4937822236964426E-020  0.39094662499999999     
 chl2c          11  0.49737575000000001        2.1820572217820047E-002  0.49737575000000001        0.0000000000000000        5.4095382684047574E-016
 chl          11   7.4297105384768595E-021   1.4937822236964426E-020  0.49737575000000001     
 chl2c          12  0.30768942500000002        4.5290941298723353E-002  0.30768942500000002        0.0000000000000000        2.4097744357288243E-009
 chl          12   4.5962099348453926E-021   1.4937822236969607E-020  0.30768942500000002     
 chl2c          13  0.75666275000000005        3.7935816987997487E-002  0.75666275000000005        0.0000000000000000        1.1337099894753826E-005
 chl          13   1.1309917833422344E-020   1.4947105343063792E-020  0.75666275000000005     
 chl2c          14  0.39804095000000000        4.6856526101924839E-002  0.39804095000000000        0.0000000000000000        2.8546075143215614E-018
 chl          14   5.9458649541324453E-021   1.4937822236964426E-020  0.39804095000000000     
 chl2c          15  0.25607262500000000        2.0954299823745293E-002  0.25607262500000000        0.0000000000000000        5.4214057169228499E-016
 chl          15   3.8251673520028522E-021   1.4937822236964426E-020  0.25607262500000000     
 chl2c          16  0.71433214999999994        3.7823443882273475E-002  0.71433214999999994        0.0000000000000000        1.0906897951062678E-005
 chl          16   1.0677201886437024E-020   1.4947110929330320E-020  0.71433214999999994     
 chl2c          17  0.62580860000000005        3.7542254757581245E-002  0.62580860000000005        0.0000000000000000        8.5758721369409255E-016
 chl          17   9.3540190961287585E-021   1.4947092603279594E-020  0.62580860000000005     
 chl2c          18  0.47925950000000000        2.5694475239060960E-002  0.47925950000000000        0.0000000000000000        5.4145592740813889E-016
 chl          18   7.1590932163764517E-021   1.4937822236964426E-020  0.47925950000000000     
 chl2c          19  0.63367130000000005        3.7570220750293731E-002  0.63367130000000005        0.0000000000000000        3.9968325675984826E-006
 chl          19   9.4715577913092463E-021   1.4947114996859169E-020  0.63367130000000005     
 chl2c          20  0.50678202500000002        3.7020645196759419E-002  0.50678202500000002        0.0000000000000000        1.0659006897910531E-005
 chl          20   7.5749209577302984E-021   1.4947098721053293E-020  0.50678202500000002     
 chl2c          21  0.71973185000000006        3.7838475073783531E-002  0.71973185000000006        0.0000000000000000        8.4738310339343556E-006
 chl          21   1.0757917536188431E-020   1.4947118897389952E-020  0.71973185000000006     
 chl2c          22  0.64616892500000001        3.7613353106285476E-002  0.64616892500000001        0.0000000000000000        8.5758721369409255E-016
 chl          22   9.6583573690709215E-021   1.4947109022723309E-020  0.64616892500000001     
 chl2c          23  0.41564179999999995        3.2286562315070731E-002  0.41564179999999995        0.0000000000000000        3.7528148642641815E-009
 chl          23   6.2087833227393615E-021   1.4937822237174803E-020  0.41564179999999995     
 chl2c          24  0.57597492500000003        3.7348402796863071E-002  0.57597492500000003        0.0000000000000000        9.2306086034491316E-016
 chl          24   8.6091505411420191E-021   1.4947092603279594E-020  0.57597492500000003     
 chl2c          25  0.31406487500000002        4.5426679235459781E-002  0.31406487500000002        0.0000000000000000        2.8586774253317787E-009
 chl          25   4.6914452736729519E-021   1.4937822237118849E-020  0.31406487500000002     
 chl2c          26  0.49427735000000000        4.7955660680174553E-002  0.49427735000000000        0.0000000000000000        2.0294597919699216E-019
 chl          26   7.3834271900578477E-021   1.4937822236964426E-020  0.49427735000000000     
 chl2c          27  0.30964730000000001        4.5333133499525620E-002  0.30964730000000001        0.0000000000000000        2.8298765672902564E-018
 chl          27   4.6254563235559946E-021   1.4937822236964426E-020  0.30964730000000001     
 chl2c          28  0.28776342500000002        3.1209236063453518E-002  0.28776342500000002        0.0000000000000000        2.8122743665237805E-018
 chl          28   4.2985588889500449E-021   1.4937822236964426E-020  0.28776342500000002     
 chl2c          29  0.68676297499999994        3.7743217595736761E-002  0.68676297499999994        0.0000000000000000        9.2980815031860194E-016
 chl          29   1.0265109784325461E-020   1.4947092604002802E-020  0.68676297499999994     
 chl2c          30  0.38930277499999999        2.5380056985171612E-002  0.38930277499999999        0.0000000000000000        5.4246599294929449E-016
 chl          30   5.8153356493069586E-021   1.4937822236964426E-020  0.38930277499999999     
 chl2c          31  0.63559385000000002        3.7576959810037038E-002  0.63559385000000002        0.0000000000000000        9.3230717468300046E-016
 chl          31   9.5002801340250010E-021   1.4947092603279594E-020  0.63559385000000002     
 chl2c          32  0.24722667500000001        2.0893126428578448E-002  0.24722667500000001        0.0000000000000000        5.4263333118269576E-016
 chl          32   3.6930281263400682E-021   1.4937822248914153E-020  0.24722667500000001     
 chl2c          33  0.60343137499999999        3.7458922634011876E-002  0.60343137499999999        0.0000000000000000        3.0685003440101516E-006
 chl          33   9.0195585188467125E-021   1.4947115600090752E-020  0.60343137499999999     
 chl2c          34  0.38241020000000003        2.5350269098008315E-002  0.38241020000000003        0.0000000000000000        5.3754841894207769E-016
 chl          34   5.7123755892020140E-021   1.4937822236964426E-020  0.38241020000000003     
 chl2c          35  0.49574644999999995        2.5740370148566064E-002  0.49574644999999995        0.0000000000000000        5.3846215762707759E-016
 chl          35   7.4053723447061719E-021   1.4937822236964426E-020  0.49574644999999995     
 chl2c          36  0.69587337500000002        3.7770393924465726E-002  0.69587337500000002        0.0000000000000000        8.5758721369409255E-016
 chl          36   1.0401283776281708E-020   1.4947092603279594E-020  0.69587337500000002     
 chl2c          37  0.33194060000000003        2.1353674699533250E-002  0.33194060000000003        0.0000000000000000        5.3715256002807615E-016
 chl          37   4.9584696760313143E-021   1.4937822236964426E-020  0.33194060000000003     
 chl2c          38  0.38455722500000000        2.1543295686358745E-002  0.38455722500000000        0.0000000000000000        5.4268020680153589E-016
 chl          38   5.7444474669903322E-021   1.4937822236964426E-020  0.38455722500000000     
 chl2c          39  0.47091117500000002        2.5670077108751441E-002  0.47091117500000002        0.0000000000000000        5.4019728763579992E-016
 chl          39   7.0343874215500462E-021   1.4937822236964426E-020  0.47091117500000002     
 chl2c          40  0.66875547499999999        3.7687445774703773E-002  0.66875547499999999        0.0000000000000000        1.0905662717626305E-005
 chl          40   9.9959618723393716E-021   1.4947110335566780E-020  0.66875547499999999     
 chl2c          41  0.44304987499999998        2.5582381488167241E-002  0.44304987499999998        0.0000000000000000        6.8320553837383999E-006
 chl          41   6.6182003133855442E-021   1.4937822323921306E-020  0.44304987499999998     
 chl2c          42  0.76234377499999995        3.7949995630725070E-002  0.76234377499999995        0.0000000000000000        1.1864919693585799E-005
 chl          42   1.1394840209616079E-020   1.4947115177291348E-020  0.76234377499999995     
 chl2c          43  0.29539925000000000        2.1185090152268007E-002  0.29539925000000000        0.0000000000000000        2.8441374684101579E-006
 chl          43   4.4126215159182231E-021   1.4937822340165803E-020  0.29539925000000000     
 chl2c          44  0.62417262500000004        3.7536352708156646E-002  0.62417262500000004        0.0000000000000000        1.0127118787322682E-005
 chl          44   9.3295689998490088E-021   1.4947097367253182E-020  0.62417262500000004     
 chl2c          45  0.37662252499999999        4.6544927192009838E-002  0.37662252499999999        0.0000000000000000        2.7029809766940142E-019
 chl          45   5.6259203288866902E-021   1.4937822236964426E-020  0.37662252499999999     
 chl2c          46  0.51876034999999998        3.7083195475449568E-002  0.51876034999999998        0.0000000000000000        9.3227643002165826E-016
 chl          46   7.7539589903597693E-021   1.4947092603279664E-020  0.51876034999999998     
 chl2c          47  0.61962282499999999        3.7519784612651236E-002  0.61962282499999999        0.0000000000000000        1.2195878387249783E-006
 chl          47   9.2615597443807063E-021   1.4947092603279594E-020  0.61962282499999999     
 chl2c          48  0.71424949999999998        3.7823212136301673E-002  0.71424949999999998        0.0000000000000000        1.1737961771048901E-005
 chl          48   1.0675966012162907E-020   1.4947110235517012E-020  0.71424949999999998     
 chl2c          49  0.53276120000000005        3.7152990741888416E-002  0.53276120000000005        0.0000000000000000        1.6411404988880556E-006
 chl          49   7.9632309918343614E-021   1.4947092603279594E-020  0.53276120000000005     
 chl2c          50  0.38132569999999999        2.1533072915600981E-002  0.38132569999999999        0.0000000000000000        5.3934221280501987E-016
 chl          50   5.6961755429156925E-021   1.4937822294473446E-020  0.38132569999999999     
 chl2c          51  0.22275920000000002        2.0700971146093840E-002  0.22275920000000002        0.0000000000000000        5.4329242451105559E-016
 chl          51   3.3275373312484061E-021   1.4937822236964426E-020  0.22275920000000002     
 chl2c          52  0.63698869999999996        3.7581825176985564E-002  0.63698869999999996        0.0000000000000000        1.0723833705628939E-005
 chl          52   9.5211378293942130E-021   1.4947106329192673E-020  0.63698869999999996     
 chl2c          53  0.75269794999999995        3.7925801262726190E-002  0.75269794999999995        0.0000000000000000        1.0957836650634815E-005
 chl          53   1.1250662187379777E-020   1.4947114160972242E-020  0.75269794999999995     
 chl2c          54  0.51861124999999997        3.7082433371327092E-002  0.51861124999999997        0.0000000000000000        1.9472188706458336E-006
 chl          54   7.7517303788525834E-021   1.4947092603279594E-020  0.51861124999999997     
 chl2c          55  0.57808280000000001        3.7357235588660491E-002  0.57808280000000001        0.0000000000000000        9.3401117485419933E-016
 chl          55   8.6406662248473573E-021   1.4947108311901611E-020  0.57808280000000001     
 chl2c          56  0.61626080000000005        3.7507394187257688E-002  0.61626080000000005        0.0000000000000000        8.5758721369409255E-016
 chl          56   9.2113072453711665E-021   1.4947092603279594E-020  0.61626080000000005     
 chl2c          57  0.68163462500000005        3.7727617852646313E-002  0.68163462500000005        0.0000000000000000        9.3455681044753413E-016
 chl          57   1.0188455861476761E-020   1.4947092603279594E-020  0.68163462500000005     
 chl2c          58  0.69416802499999997        3.7765358178394853E-002  0.69416802499999997        0.0000000000000000        5.8576810098182557E-006
 chl          58   1.0375810291168356E-020   1.4947116429294415E-020  0.69416802499999997     
 chl2c          59  0.53705127500000005        3.7173699120809672E-002  0.53705127500000005        0.0000000000000000        1.1751323300252118E-005
 chl          59   8.0273668488245181E-021   1.4947114405090125E-020  0.53705127500000005     
 chl2c          60  0.64452155000000000        3.7607757740906807E-002  0.64452155000000000        0.0000000000000000        7.7746132262164326E-006
 chl          60   9.6337389787640798E-021   1.4947116940875103E-020  0.64452155000000000     
 chl2c          61  0.70794139999999994        3.7805373434125003E-002  0.70794139999999994        0.0000000000000000        9.3034460031178939E-016
 chl          61   1.0581665663495400E-020   1.4947092603279594E-020  0.70794139999999994     
 chl2c          62  0.76481592499999995        3.7956103087269030E-002  0.76481592499999995        0.0000000000000000        1.1647353283544212E-005
 chl          62   1.1431788567353412E-020   1.4947111054667713E-020  0.76481592499999995     
 chl2c          63  0.72597904999999996        3.7855601011927406E-002  0.72597904999999996        0.0000000000000000        7.5754799906735140E-007
 chl          63   1.0851292994002792E-020   1.4947115889918301E-020  0.72597904999999996     
 chl2c          64  0.48435739999999999        2.5708982294816416E-002  0.48435739999999999        0.0000000000000000        5.3497570693122158E-016
 chl          64   7.2352447403582736E-021   1.4937822236964426E-020  0.48435739999999999     
 chl2c          65  0.76379975000000000        3.7953597170552002E-002  0.76379975000000000        0.0000000000000000        1.0787969847060755E-005
 chl          65   1.1416604875239506E-020   1.4947117847628918E-020  0.76379975000000000     
 chl2c          66  0.35213202499999996        3.1840477731474713E-002  0.35213202499999996        0.0000000000000000        2.2228859501401459E-019
 chl          66   5.2600855933923121E-021   1.4937822236964426E-020  0.35213202499999996     
 chl2c          67  0.75736760000000003        3.7937587124568600E-002  0.75736760000000003        0.0000000000000000        1.8596378900330482E-006
 chl          67   1.1320443651923619E-020   1.4947092603279594E-020  0.75736760000000003     
 chl2c          68  0.72590779999999999        3.7855407263856986E-002  0.72590779999999999        0.0000000000000000        6.9822355250268660E-006
 chl          68   1.0850228906896036E-020   1.4947117122720042E-020  0.72590779999999999     
 chl2c          69  0.45524217500000003        2.1732330561541505E-002  0.45524217500000003        0.0000000000000000        5.3799168463433337E-016
 chl          69   6.8003266849190516E-021   1.4937822236964426E-020  0.45524217500000003     
 chl2c          70  0.48694062500000002        3.2658010878182209E-002  0.48694062500000002        0.0000000000000000        3.4777327637628050E-018
 chl          70   7.2738324962063558E-021   1.4937822236964426E-020  0.48694062500000002     
 chl2c          71  0.23986107500000001        4.3481058864416305E-002  0.23986107500000001        0.0000000000000000        2.7880614841125621E-009
 chl          71   3.5830020999735074E-021   1.4937822237199208E-020  0.23986107500000001     
 chl2c          72  0.62790522500000001        3.7549776402781669E-002  0.62790522500000001        0.0000000000000000        1.0483377470954192E-005
 chl          72   9.3853642468962254E-021   1.4947103278040449E-020  0.62790522500000001     
 chl2c          73  0.35362212500000001        3.1852614277819484E-002  0.35362212500000001        0.0000000000000000        2.7915872750836114E-019
 chl          73   5.2823444423076141E-021   1.4937822236964426E-020  0.35362212500000001     
 chl2c          74  0.64719590000000005        3.7616827685877569E-002  0.64719590000000005        0.0000000000000000        8.0064439142083142E-006
 chl          74   9.6737129676620444E-021   1.4947117198458835E-020  0.64719590000000005     
 chl2c          75  0.71554212500000003        3.7826830779512356E-002  0.71554212500000003        0.0000000000000000        8.5758721369409255E-016
 chl          75   1.0695274403922463E-020   1.4947092603279594E-020  0.71554212500000003     
 chl2c          76  0.55513977500000000        3.7257729557919804E-002  0.55513977500000000        0.0000000000000000        8.5758721369409255E-016
 chl          76   8.2977285111334758E-021   1.4947097802771340E-020  0.55513977500000000     
 chl2c          77  0.52973029999999999        3.7138172437479272E-002  0.52973029999999999        0.0000000000000000        1.0036138714186735E-005
 chl          77   7.9179391674725327E-021   1.4947113970019334E-020  0.52973029999999999     
 chl2c          78  0.45117492500000000        4.7515248899399322E-002  0.45117492500000000        0.0000000000000000        3.5900135259999769E-018
 chl          78   6.7395708274257569E-021   1.4937822236964426E-020  0.45117492500000000     
 prod   1.0090394655066155E-009   0.0000000000000000        10.000000000000000     
 chl2c           1  0.60826437499999997        3.7477407714772232E-002  0.60826437499999997        0.0000000000000000        9.0751802070749707E-006
 chl           1   1.6268524759926996E-020   2.6745812229964967E-020  0.60826437499999997     
 chl2c           2  0.48302390000000001        3.2640259920490348E-002  0.48302390000000001        0.0000000000000000        2.0293980099548864E-019
 chl           2   1.2921651541217545E-020   2.6751578009323234E-020  0.48302390000000001     
 chl2c           3  0.75128689999999998        3.7922212503796585E-002  0.75128689999999998        0.0000000000000000        8.8068957506553245E-016
 chl           3   2.0093778358054418E-020   2.6745812229727975E-020  0.75128689999999998     
 chl2c           4  0.77318742499999993        3.7976509103863923E-002  0.77318742499999993        0.0000000000000000        8.8068957506553245E-016
 chl           4   2.0679525687636520E-020   2.6745812229986179E-020  0.77318742499999993     
 chl2c           5  0.48489679999999996        2.5710500362372445E-002  0.48489679999999996        0.0000000000000000        5.3956926551176626E-016
 chl           5   1.2971754571671205E-020   2.6751578009323234E-020  0.48489679999999996     
 chl2c           6  0.29222855000000003        3.1261039902252048E-002  0.29222855000000003        0.0000000000000000        4.2568986237891358E-008
 chl           6   7.8175748518764197E-021   2.6751578009323249E-020  0.29222855000000003     
 chl2c           7  0.22770740000000000        4.3064391842467263E-002  0.22770740000000000        0.0000000000000000        1.9802731568207449E-019
 chl           7   6.0915322744001699E-021   2.6751578009323234E-020  0.22770740000000000     
 chl2c           8  0.49578364999999996        4.7969800906495587E-002  0.49578364999999996        0.0000000000000000        2.1041340938622949E-019
 chl           8   1.3262994988722007E-020   2.6751578009323234E-020  0.49578364999999996     
 chl2c           9  0.28700202499999999        2.4803669054600401E-002  0.28700202499999999        0.0000000000000000        5.4184050665870425E-016
 chl           9   7.6777570606213456E-021   2.6751578009323613E-020  0.28700202499999999     
 chl2c          10  0.39094662499999999        2.5387016219684602E-002  0.39094662499999999        0.0000000000000000        5.4184837038372997E-016
 chl          10   1.0458439136169136E-020   2.6751578009323234E-020  0.39094662499999999     
 chl2c          11  0.49737575000000001        2.1820572217820047E-002  0.49737575000000001        0.0000000000000000        5.4221091080149690E-016
 chl          11   1.3305586176070651E-020   2.6751578009323234E-020  0.49737575000000001     
 chl2c          12  0.30768942500000002        4.5290941298723353E-002  0.30768942500000002        0.0000000000000000        2.4578137786642122E-009
 chl          12   8.2311776555313116E-021   2.6751578009323234E-020  0.30768942500000002     
 chl2c          13  0.75666275000000005        3.7935816987997487E-002  0.75666275000000005        0.0000000000000000        1.1043105755118043E-005
 chl          13   2.0237559832833002E-020   2.6745812229864626E-020  0.75666275000000005     
 chl2c          14  0.39804095000000000        4.6856526101924839E-002  0.39804095000000000        0.0000000000000000        2.7296946648139161E-018
 chl          14   1.0648223524830128E-020   2.6751578009323234E-020  0.39804095000000000     
 chl2c          15  0.25607262500000000        2.0954299823745293E-002  0.25607262500000000        0.0000000000000000        5.4323432544981388E-016
 chl          15   6.8503468037396745E-021   2.6751578009323234E-020  0.25607262500000000     
 chl2c          16  0.71433214999999994        3.7823443882273475E-002  0.71433214999999994        0.0000000000000000        1.0477518127108049E-005
 chl          16   1.9105393553698286E-020   2.6745812229924534E-020  0.71433214999999994     
 chl2c          17  0.62580860000000005        3.7542254757581245E-002  0.62580860000000005        0.0000000000000000        2.8551419251287849E-006
 chl          17   1.6737759307348945E-020   2.6745812229727975E-020  0.62580860000000005     
 chl2c          18  0.47925950000000000        2.5694475239060960E-002  0.47925950000000000        0.0000000000000000        5.4264444165345173E-016
 chl          18   1.2820947900959249E-020   2.6751578009323234E-020  0.47925950000000000     
 chl2c          19  0.63367130000000005        3.7570220750293731E-002  0.63367130000000005        0.0000000000000000        1.3751738977337778E-007
 chl          19   1.6948053605319816E-020   2.6745812229968147E-020  0.63367130000000005     
 chl2c          20  0.50678202500000002        3.7020645196759419E-002  0.50678202500000002        0.0000000000000000        1.0917106004212597E-005
 chl          20   1.3554296882084571E-020   2.6745812229793607E-020  0.50678202500000002     
 chl2c          21  0.71973185000000006        3.7838475073783531E-002  0.71973185000000006        0.0000000000000000        4.1877193804052216E-006
 chl          21   1.9249812916057706E-020   2.6745812230009973E-020  0.71973185000000006     
 chl2c          22  0.64616892500000001        3.7613353106285476E-002  0.64616892500000001        0.0000000000000000        8.8068957506553245E-016
 chl          22   1.7282312736848921E-020   2.6745812229904002E-020  0.64616892500000001     
 chl2c          23  0.41564179999999995        3.2286562315070731E-002  0.41564179999999995        0.0000000000000000        3.3975426759718825E-009
 chl          23   1.1119074036635524E-020   2.6751578009323234E-020  0.41564179999999995     
 chl2c          24  0.57597492500000003        3.7348402796863071E-002  0.57597492500000003        0.0000000000000000        9.2824307119682970E-016
 chl          24   1.5404917193081649E-020   2.6745812229727969E-020  0.57597492500000003     
 chl2c          25  0.31406487500000002        4.5426679235459781E-002  0.31406487500000002        0.0000000000000000        2.5975567270847570E-009
 chl          25   8.4017310035508513E-021   2.6751578009323234E-020  0.31406487500000002     
 chl2c          26  0.49427735000000000        4.7955660680174553E-002  0.49427735000000000        0.0000000000000000        4.1816043426625156E-010
 chl          26   1.3222699086766563E-020   2.6751578009323234E-020  0.49427735000000000     
 chl2c          27  0.30964730000000001        4.5333133499525620E-002  0.30964730000000001        0.0000000000000000        2.7060408410451532E-018
 chl          27   8.2835539013263146E-021   2.6751578009323234E-020  0.30964730000000001     
 chl2c          28  0.28776342500000002        3.1209236063453518E-002  0.28776342500000002        0.0000000000000000        1.3325899617486460E-008
 chl          28   7.6981257121175355E-021   2.6751578009323234E-020  0.28776342500000002     
 chl2c          29  0.68676297499999994        3.7743217595736761E-002  0.68676297499999994        0.0000000000000000        9.3416838504374278E-016
 chl          29   1.8368033575679368E-020   2.6745812229727978E-020  0.68676297499999994     
 chl2c          30  0.38930277499999999        2.5380056985171612E-002  0.38930277499999999        0.0000000000000000        5.4351412250028101E-016
 chl          30   1.0414463554658510E-020   2.6751578009323234E-020  0.38930277499999999     
 chl2c          31  0.63559385000000002        3.7576959810037038E-002  0.63559385000000002        0.0000000000000000        9.3635831807973408E-016
 chl          31   1.6999473766469885E-020   2.6745812229727969E-020  0.63559385000000002     
 chl2c          32  0.24722667500000001        2.0893126428578448E-002  0.24722667500000001        0.0000000000000000        5.4365783672408799E-016
 chl          32   6.6137036822481210E-021   2.6751578009323309E-020  0.24722667500000001     
 chl2c          33  0.60343137499999999        3.7458922634011876E-002  0.60343137499999999        0.0000000000000000        9.2987409065260364E-016
 chl          33   1.6139262249425405E-020   2.6745812229974626E-020  0.60343137499999999     
 chl2c          34  0.38241020000000003        2.5350269098008315E-002  0.38241020000000003        0.0000000000000000        5.3925576308980042E-016
 chl          34   1.0230076296860901E-020   2.6751578009323234E-020  0.38241020000000003     
 chl2c          35  0.49574644999999995        2.5740370148566064E-002  0.49574644999999995        0.0000000000000000        5.4005074825262106E-016
 chl          35   1.3261999830020059E-020   2.6751578009323234E-020  0.49574644999999995     
 chl2c          36  0.69587337500000002        3.7770393924465726E-002  0.69587337500000002        0.0000000000000000        8.8068957506553245E-016
 chl          36   1.8611698623417081E-020   2.6745812229727975E-020  0.69587337500000002     
 chl2c          37  0.33194060000000003        2.1353674699533250E-002  0.33194060000000003        0.0000000000000000        5.3891097867277617E-016
 chl          37   8.8799348553615606E-021   2.6751578009323234E-020  0.33194060000000003     
 chl2c          38  0.38455722500000000        2.1543295686358745E-002  0.38455722500000000        0.0000000000000000        5.4369807374096527E-016
 chl          38   1.0287512603636367E-020   2.6751578009323234E-020  0.38455722500000000     
 chl2c          39  0.47091117500000002        2.5670077108751441E-002  0.47091117500000002        0.0000000000000000        5.4155642855212176E-016
 chl          39   1.2597617033474565E-020   2.6751578009323234E-020  0.47091117500000002     
 chl2c          40  0.66875547499999999        3.7687445774703773E-002  0.66875547499999999        0.0000000000000000        1.0477501721337133E-005
 chl          40   1.7886408362079736E-020   2.6745812229918173E-020  0.66875547499999999     
 chl2c          41  0.44304987499999998        2.5582381488167241E-002  0.44304987499999998        0.0000000000000000        6.0413258908058423E-006
 chl          41   1.1852283293083645E-020   2.6751578009323770E-020  0.44304987499999998     
 chl2c          42  0.76234377499999995        3.7949995630725070E-002  0.76234377499999995        0.0000000000000000        1.1112913677875008E-005
 chl          42   2.0389503460836564E-020   2.6745812229970088E-020  0.76234377499999995     
 chl2c          43  0.29539925000000000        2.1185090152268007E-002  0.29539925000000000        0.0000000000000000        5.4365991794529449E-016
 chl          43   7.9023960802707634E-021   2.6751578009323866E-020  0.29539925000000000     
 chl2c          44  0.62417262500000004        3.7536352708156646E-002  0.62417262500000004        0.0000000000000000        1.0707337924672197E-005
 chl          44   1.6694003827218309E-020   2.6745812229779075E-020  0.62417262500000004     
 chl2c          45  0.37662252499999999        4.6544927192009838E-002  0.37662252499999999        0.0000000000000000        2.6670057726892046E-019
 chl          45   1.0075246857605790E-020   2.6751578009323234E-020  0.37662252499999999     
 chl2c          46  0.51876034999999998        3.7083195475449568E-002  0.51876034999999998        0.0000000000000000        9.3633139313376821E-016
 chl          46   1.3874666913327962E-020   2.6745812229727969E-020  0.51876034999999998     
 chl2c          47  0.61962282499999999        3.7519784612651236E-002  0.61962282499999999        0.0000000000000000        4.9866719289668947E-006
 chl          47   1.6572315730703594E-020   2.6745812229727969E-020  0.61962282499999999     
 chl2c          48  0.71424949999999998        3.7823212136301673E-002  0.71424949999999998        0.0000000000000000        1.1126343691682788E-005
 chl          48   1.9103183012312172E-020   2.6745812229917098E-020  0.71424949999999998     
 chl2c          49  0.53276120000000005        3.7152990741888416E-002  0.53276120000000005        0.0000000000000000        5.4086767327876884E-006
 chl          49   1.4249131018484550E-020   2.6745812229727969E-020  0.53276120000000005     
 chl2c          50  0.38132569999999999        2.1533072915600981E-002  0.38132569999999999        0.0000000000000000        5.4081514512844358E-016
 chl          50   1.0201064210509924E-020   2.6751578009323589E-020  0.38132569999999999     
 chl2c          51  0.22275920000000002        2.0700971146093840E-002  0.22275920000000002        0.0000000000000000        5.4422267307266589E-016
 chl          51   5.9591601160944369E-021   2.6751578009323234E-020  0.22275920000000002     
 chl2c          52  0.63698869999999996        3.7581825176985564E-002  0.63698869999999996        0.0000000000000000        1.0466345143102045E-005
 chl          52   1.7036780162752309E-020   2.6745812229875209E-020  0.63698869999999996     
 chl2c          53  0.75269794999999995        3.7925801262726190E-002  0.75269794999999995        0.0000000000000000        1.0477595425814847E-005
 chl          53   2.0131518036575208E-020   2.6745812229959186E-020  0.75269794999999995     
 chl2c          54  0.51861124999999997        3.7082433371327092E-002  0.51861124999999997        0.0000000000000000        5.6910405877627932E-006
 chl          54   1.3870679112724507E-020   2.6745812229727969E-020  0.51861124999999997     
 chl2c          55  0.57808280000000001        3.7357235588660491E-002  0.57808280000000001        0.0000000000000000        9.3784990539727850E-016
 chl          55   1.5461294022132741E-020   2.6745812229896376E-020  0.57808280000000001     
 chl2c          56  0.61626080000000005        3.7507394187257688E-002  0.61626080000000005        0.0000000000000000        8.8068957506553245E-016
 chl          56   1.6482395641341946E-020   2.6745812229727975E-020  0.61626080000000005     
 chl2c          57  0.68163462500000005        3.7727617852646313E-002  0.68163462500000005        0.0000000000000000        9.3832721935362859E-016
 chl          57   1.8230871689531040E-020   2.6745812229727969E-020  0.68163462500000005     
 chl2c          58  0.69416802499999997        3.7765358178394853E-002  0.69416802499999997        0.0000000000000000        1.7354298044432990E-006
 chl          58   1.8566087652708493E-020   2.6745812229983504E-020  0.69416802499999997     
 chl2c          59  0.53705127500000005        3.7173699120809672E-002  0.53705127500000005        0.0000000000000000        1.0041423636243609E-005
 chl          59   1.4363872559011597E-020   2.6745812229961831E-020  0.53705127500000005     
 chl2c          60  0.64452155000000000        3.7607757740906807E-002  0.64452155000000000        0.0000000000000000        3.3838187159656895E-006
 chl          60   1.7238252354481470E-020   2.6745812229989005E-020  0.64452155000000000     
 chl2c          61  0.70794139999999994        3.7805373434125003E-002  0.70794139999999994        0.0000000000000000        9.3463871481902917E-016
 chl          61   1.8934467754050738E-020   2.6745812229727969E-020  0.70794139999999994     
 chl2c          62  0.76481592499999995        3.7956103087269030E-002  0.76481592499999995        0.0000000000000000        1.1032579849667681E-005
 chl          62   2.0455623120507074E-020   2.6745812229925879E-020  0.76481592499999995     
 chl2c          63  0.72597904999999996        3.7855601011927406E-002  0.72597904999999996        0.0000000000000000        8.8068957506553245E-016
 chl          63   1.9416899354197589E-020   2.6745812229977696E-020  0.72597904999999996     
 chl2c          64  0.48435739999999999        2.5708982294816416E-002  0.48435739999999999        0.0000000000000000        5.3701156629454524E-016
 chl          64   1.2957324770492978E-020   2.6751578009323234E-020  0.48435739999999999     
 chl2c          65  0.76379975000000000        3.7953597170552002E-002  0.76379975000000000        0.0000000000000000        9.4679896485784637E-006
 chl          65   2.0428444694819953E-020   2.6745812229998706E-020  0.76379975000000000     
 chl2c          66  0.35213202499999996        3.1840477731474713E-002  0.35213202499999996        0.0000000000000000        2.1932980052629338E-019
 chl          66   9.4200873363684579E-021   2.6751578009323234E-020  0.35213202499999996     
 chl2c          67  0.75736760000000003        3.7937587124568600E-002  0.75736760000000003        0.0000000000000000        5.6236656663661561E-006
 chl          67   2.0256411618479721E-020   2.6745812229727969E-020  0.75736760000000003     
 chl2c          68  0.72590779999999999        3.7855407263856986E-002  0.72590779999999999        0.0000000000000000        2.9243914464838536E-006
 chl          68   1.9414993715085818E-020   2.6745812229990940E-020  0.72590779999999999     
 chl2c          69  0.45524217500000003        2.1732330561541505E-002  0.45524217500000003        0.0000000000000000        5.3964157676510738E-016
 chl          69   1.2178446557646480E-020   2.6751578009323234E-020  0.45524217500000003     
 chl2c          70  0.48694062500000002        3.2658010878182209E-002  0.48694062500000002        0.0000000000000000        1.6807712305245073E-008
 chl          70   1.3026430115596112E-020   2.6751578009323234E-020  0.48694062500000002     
 chl2c          71  0.23986107500000001        4.3481058864416305E-002  0.23986107500000001        0.0000000000000000        1.5326321722957669E-009
 chl          71   6.4166622592626308E-021   2.6751578009323234E-020  0.23986107500000001     
 chl2c          72  0.62790522500000001        3.7549776402781669E-002  0.62790522500000001        0.0000000000000000        1.0432869705125907E-005
 chl          72   1.6793835245986997E-020   2.6745812229842483E-020  0.62790522500000001     
 chl2c          73  0.35362212500000001        3.1852614277819484E-002  0.35362212500000001        0.0000000000000000        2.7544333591889692E-019
 chl          73   9.4599498627601514E-021   2.6751578009323234E-020  0.35362212500000001     
 chl2c          74  0.64719590000000005        3.7616827685877569E-002  0.64719590000000005        0.0000000000000000        3.6041230792118018E-006
 chl          74   1.7309780017420529E-020   2.6745812229991767E-020  0.64719590000000005     
 chl2c          75  0.71554212500000003        3.7826830779512356E-002  0.71554212500000003        0.0000000000000000        8.8068957506553245E-016
 chl          75   1.9137755317710545E-020   2.6745812229727975E-020  0.71554212500000003     
 chl2c          76  0.55513977500000000        3.7257729557919804E-002  0.55513977500000000        0.0000000000000000        8.8068957506553245E-016
 chl          76   1.4847664183434371E-020   2.6745812229783697E-020  0.55513977500000000     
 chl2c          77  0.52973029999999999        3.7138172437479272E-002  0.52973029999999999        0.0000000000000000        6.5420793951823521E-006
 chl          77   1.4168067136318876E-020   2.6745812229957164E-020  0.52973029999999999     
 chl2c          78  0.45117492500000000        4.7515248899399322E-002  0.45117492500000000        0.0000000000000000        3.4331114707546752E-018
 chl          78   1.2069641201988060E-020   2.6751578009323234E-020  0.45117492500000000     
 prod   9.9560319819389760E-010   0.0000000000000000        10.000000000000000     
 chl2c           1  0.60826437499999997        3.7477407714772232E-002  0.60826437499999997        0.0000000000000000        3.6255152288671843E-006
 chl           1   9.9766660241099925E-016   1.6401858195476256E-015  0.60826437499999997     
 chl2c           2  0.48302390000000001        3.2640259920490348E-002  0.48302390000000001        0.0000000000000000        1.8671244933926169E-019
 chl           2   7.9258052369300781E-016   1.6408722709021391E-015  0.48302390000000001     
 chl2c           3  0.75128689999999998        3.7922212503796585E-002  0.75128689999999998        0.0000000000000000        1.2838850732402667E-006
 chl           3   1.2322501197918950E-015   1.6401858195476256E-015  0.75128689999999998     
 chl2c           4  0.77318742499999993        3.7976509103863923E-002  0.77318742499999993        0.0000000000000000        9.1266971586387620E-016
 chl           4   1.2681710503375432E-015   1.6401858195476256E-015  0.77318742499999993     
 chl2c           5  0.48489679999999996        2.5710500362372445E-002  0.48489679999999996        0.0000000000000000        5.3956926505685049E-016
 chl           5   7.9565371336918030E-016   1.6408722709021391E-015  0.48489679999999996     
 chl2c           6  0.29222855000000003        3.1261039902252048E-002  0.29222855000000003        0.0000000000000000        2.8603186085256666E-008
 chl           6   4.7950972446093932E-016   1.6408722709021391E-015  0.29222855000000003     
 chl2c           7  0.22770740000000000        4.3064391842467263E-002  0.22770740000000000        0.0000000000000000        1.8219264335556712E-019
 chl           7   3.7363875853922176E-016   1.6408722709021391E-015  0.22770740000000000     
 chl2c           8  0.49578364999999996        4.7969800906495587E-002  0.49578364999999996        0.0000000000000000        1.9358866748402453E-019
 chl           8   8.1351764365165131E-016   1.6408722709021391E-015  0.49578364999999996     
 chl2c           9  0.28700202499999999        2.4803669054600401E-002  0.28700202499999999        0.0000000000000000        5.4184050629149630E-016
 chl           9   4.7093366451526250E-016   1.6408722709021391E-015  0.28700202499999999     
 chl2c          10  0.39094662499999999        2.5387016219684602E-002  0.39094662499999999        0.0000000000000000        5.4184837001682691E-016
 chl          10   6.4149347636527700E-016   1.6408722709021391E-015  0.39094662499999999     
 chl2c          11  0.49737575000000001        2.1820572217820047E-002  0.49737575000000001        0.0000000000000000        7.0012296099955048E-007
 chl          11   8.1613007639415466E-016   1.6408722709021391E-015  0.49737575000000001     
 chl2c          12  0.30768942500000002        4.5290941298723353E-002  0.30768942500000002        0.0000000000000000        2.0176140836432885E-009
 chl          12   5.0487904553232344E-016   1.6408722709021391E-015  0.30768942500000002     
 chl2c          13  0.75666275000000005        3.7935816987997487E-002  0.75666275000000005        0.0000000000000000        9.8177021745990773E-006
 chl          13   1.2410675127299093E-015   1.6401858195476245E-015  0.75666275000000005     
 chl2c          14  0.39804095000000000        4.6856526101924839E-002  0.39804095000000000        0.0000000000000000        2.3742463296912966E-018
 chl          14   6.5313435753854486E-016   1.6408722709021391E-015  0.39804095000000000     
 chl2c          15  0.25607262500000000        2.0954299823745293E-002  0.25607262500000000        0.0000000000000000        5.4323432513680265E-016
 chl          15   4.2018246969962189E-016   1.6408722709021391E-015  0.25607262500000000     
 chl2c          16  0.71433214999999994        3.7823443882273475E-002  0.71433214999999994        0.0000000000000000        9.5538651358472095E-006
 chl          16   1.1716374628769673E-015   1.6401858195476256E-015  0.71433214999999994     
 chl2c          17  0.62580860000000005        3.7542254757581245E-002  0.62580860000000005        0.0000000000000000        7.6691344527840069E-006
 chl          17   1.0264423914709524E-015   1.6401858195476256E-015  0.62580860000000005     
 chl2c          18  0.47925950000000000        2.5694475239060960E-002  0.47925950000000000        0.0000000000000000        5.4264444131746917E-016
 chl          18   7.8640362411642378E-016   1.6408722709021391E-015  0.47925950000000000     
 chl2c          19  0.63367130000000005        3.7570220750293731E-002  0.63367130000000005        0.0000000000000000        9.1266971586387620E-016
 chl          19   1.0393386805143094E-015   1.6401858195476256E-015  0.63367130000000005     
 chl2c          20  0.50678202500000002        3.7020645196759419E-002  0.50678202500000002        0.0000000000000000        9.8509847373572194E-006
 chl          20   8.3121669100662973E-016   1.6401858195476245E-015  0.50678202500000002     
 chl2c          21  0.71973185000000006        3.7838475073783531E-002  0.71973185000000006        0.0000000000000000        9.3329172130159694E-016
 chl          21   1.1804939742467781E-015   1.6401858195476245E-015  0.71973185000000006     
 chl2c          22  0.64616892500000001        3.7613353106285476E-002  0.64616892500000001        0.0000000000000000        9.1266971586387620E-016
 chl          22   1.0598371078173333E-015   1.6401858195476256E-015  0.64616892500000001     
 chl2c          23  0.41564179999999995        3.2286562315070731E-002  0.41564179999999995        0.0000000000000000        1.7750334781229696E-009
 chl          23   6.8201510424785266E-016   1.6408722709021391E-015  0.41564179999999995     
 chl2c          24  0.57597492500000003        3.7348402796863071E-002  0.57597492500000003        0.0000000000000000        9.2824306979604348E-016
 chl          24   9.4470590440000666E-016   1.6401858195476245E-015  0.57597492500000003     
 chl2c          25  0.31406487500000002        4.5426679235459781E-002  0.31406487500000002        0.0000000000000000        1.4318114666883915E-009
 chl          25   5.1534034465184654E-016   1.6408722709021391E-015  0.31406487500000002     
 chl2c          26  0.49427735000000000        4.7955660680174553E-002  0.49427735000000000        0.0000000000000000        1.6696223874719710E-009
 chl          26   8.1104599774999147E-016   1.6408722709021391E-015  0.49427735000000000     
 chl2c          27  0.30964730000000001        4.5333133499525620E-002  0.30964730000000001        0.0000000000000000        1.6558879622005533E-008
 chl          27   5.0809166832971595E-016   1.6408722709021391E-015  0.30964730000000001     
 chl2c          28  0.28776342500000002        3.1209236063453518E-002  0.28776342500000002        0.0000000000000000        2.3315863216368929E-008
 chl          28   4.7218302466232746E-016   1.6408722709021391E-015  0.28776342500000002     
 chl2c          29  0.68676297499999994        3.7743217595736761E-002  0.68676297499999994        0.0000000000000000        9.3416838386436121E-016
 chl          29   1.1264188929853396E-015   1.6401858195476245E-015  0.68676297499999994     
 chl2c          30  0.38930277499999999        2.5380056985171612E-002  0.38930277499999999        0.0000000000000000        3.0475818492751823E-006
 chl          30   6.3879612848275449E-016   1.6408722709021391E-015  0.38930277499999999     
 chl2c          31  0.63559385000000002        3.7576959810037038E-002  0.63559385000000002        0.0000000000000000        9.3635831698292120E-016
 chl          31   1.0424920197616799E-015   1.6401858195476245E-015  0.63559385000000002     
 chl2c          32  0.24722667500000001        2.0893126428578448E-002  0.24722667500000001        0.0000000000000000        5.4365783642760053E-016
 chl          32   4.0566739563483514E-016   1.6408722709021391E-015  0.24722667500000001     
 chl2c          33  0.60343137499999999        3.7458922634011876E-002  0.60343137499999999        0.0000000000000000        9.2987408931247036E-016
 chl          33   9.8973958434512481E-016   1.6401858195476245E-015  0.60343137499999999     
 chl2c          34  0.38241020000000003        2.5350269098008315E-002  0.38241020000000003        0.0000000000000000        5.3925576262283726E-016
 chl          34   6.2748629329014127E-016   1.6408722709021391E-015  0.38241020000000003     
 chl2c          35  0.49574644999999995        2.5740370148566064E-002  0.49574644999999995        0.0000000000000000        5.4005074781623573E-016
 chl          35   8.1345660320317368E-016   1.6408722709021391E-015  0.49574644999999995     
 chl2c          36  0.69587337500000002        3.7770393924465726E-002  0.69587337500000002        0.0000000000000000        9.1266971586387620E-016
 chl          36   1.1413616418757473E-015   1.6401858195476256E-015  0.69587337500000002     
 chl2c          37  0.33194060000000003        2.1353674699533250E-002  0.33194060000000003        0.0000000000000000        5.3891097819257997E-016
 chl          37   5.4467212612661865E-016   1.6408722709021391E-015  0.33194060000000003     
 chl2c          38  0.38455722500000000        2.1543295686358745E-002  0.38455722500000000        0.0000000000000000        5.4369807344604883E-016
 chl          38   6.3100928707757485E-016   1.6408722709021391E-015  0.38455722500000000     
 chl2c          39  0.47091117500000002        2.5670077108751441E-002  0.47091117500000002        0.0000000000000000        5.4155642817390259E-016
 chl          39   7.7270508911544463E-016   1.6408722709021391E-015  0.47091117500000002     
 chl2c          40  0.66875547499999999        3.7687445774703773E-002  0.66875547499999999        0.0000000000000000        9.5550820666835227E-006
 chl          40   1.0968832468398366E-015   1.6401858195476256E-015  0.66875547499999999     
 chl2c          41  0.44304987499999998        2.5582381488167241E-002  0.44304987499999998        0.0000000000000000        2.2002586128377017E-006
 chl          41   7.2698825451415884E-016   1.6408722709021391E-015  0.44304987499999998     
 chl2c          42  0.76234377499999995        3.7949995630725070E-002  0.76234377499999995        0.0000000000000000        9.7003496864565255E-006
 chl          42   1.2503854493754048E-015   1.6401858195476245E-015  0.76234377499999995     
 chl2c          43  0.29539925000000000        2.1185090152268007E-002  0.29539925000000000        0.0000000000000000        5.4365991764888809E-016
 chl          43   4.8471243817028870E-016   1.6408722709021391E-015  0.29539925000000000     
 chl2c          44  0.62417262500000004        3.7536352708156646E-002  0.62417262500000004        0.0000000000000000        9.7800279686391585E-006
 chl          44   1.0237590884748172E-015   1.6401858195476245E-015  0.62417262500000004     
 chl2c          45  0.37662252499999999        4.6544927192009838E-002  0.37662252499999999        0.0000000000000000        2.4537709505253187E-019
 chl          45   6.1798945786964761E-016   1.6408722709021391E-015  0.37662252499999999     
 chl2c          46  0.51876034999999998        3.7083195475449568E-002  0.51876034999999998        0.0000000000000000        9.3633139203593750E-016
 chl          46   8.5086336981356246E-016   1.6401858195476245E-015  0.51876034999999998     
 chl2c          47  0.61962282499999999        3.7519784612651236E-002  0.61962282499999999        0.0000000000000000        8.7501403654510239E-006
 chl          47   1.0162965710330392E-015   1.6401858195476245E-015  0.61962282499999999     
 chl2c          48  0.71424949999999998        3.7823212136301673E-002  0.71424949999999998        0.0000000000000000        9.8376169563186738E-006
 chl          48   1.1715019015189809E-015   1.6401858195476245E-015  0.71424949999999998     
 chl2c          49  0.53276120000000005        3.7152990741888416E-002  0.53276120000000005        0.0000000000000000        8.8748895632267946E-006
 chl          49   8.7382736544517592E-016   1.6401858195476245E-015  0.53276120000000005     
 chl2c          50  0.38132569999999999        2.1533072915600981E-002  0.38132569999999999        0.0000000000000000        5.4081514472154656E-016
 chl          50   6.2570676731234779E-016   1.6408722709021391E-015  0.38132569999999999     
 chl2c          51  0.22275920000000002        2.0700971146093840E-002  0.22275920000000002        0.0000000000000000        5.4422267279825658E-016
 chl          51   3.6551939436834382E-016   1.6408722709021391E-015  0.22275920000000002     
 chl2c          52  0.63698869999999996        3.7581825176985564E-002  0.63698869999999996        0.0000000000000000        9.6057602281317557E-006
 chl          52   1.0447798329520767E-015   1.6401858195476256E-015  0.63698869999999996     
 chl2c          53  0.75269794999999995        3.7925801262726190E-002  0.75269794999999995        0.0000000000000000        9.3717564158465753E-006
 chl          53   1.2345645039925677E-015   1.6401858195476256E-015  0.75269794999999995     
 chl2c          54  0.51861124999999997        3.7082433371327092E-002  0.51861124999999997        0.0000000000000000        8.9324745444749725E-006
 chl          54   8.5061881810786793E-016   1.6401858195476245E-015  0.51861124999999997     
 chl2c          55  0.57808280000000001        3.7357235588660491E-002  0.57808280000000001        0.0000000000000000        9.3784990435693229E-016
 chl          55   9.4816321108438558E-016   1.6401858195476245E-015  0.57808280000000001     
 chl2c          56  0.61626080000000005        3.7507394187257688E-002  0.61626080000000005        0.0000000000000000        9.1266971586387620E-016
 chl          56   1.0107822253030755E-015   1.6401858195476256E-015  0.61626080000000005     
 chl2c          57  0.68163462500000005        3.7727617852646313E-002  0.68163462500000005        0.0000000000000000        9.3832721833139087E-016
 chl          57   1.1180074460376628E-015   1.6401858195476245E-015  0.68163462500000005     
 chl2c          58  0.69416802499999997        3.7765358178394853E-002  0.69416802499999997        0.0000000000000000        9.1266971586387620E-016
 chl          58   1.1385645509883817E-015   1.6401858195476256E-015  0.69416802499999997     
 chl2c          59  0.53705127500000005        3.7173699120809672E-002  0.53705127500000005        0.0000000000000000        4.5105997205538853E-006
 chl          59   8.8086388562497177E-016   1.6401858195476245E-015  0.53705127500000005     
 chl2c          60  0.64452155000000000        3.7607757740906807E-002  0.64452155000000000        0.0000000000000000        9.2749717055337025E-016
 chl          60   1.0571351067028552E-015   1.6401858195476245E-015  0.64452155000000000     
 chl2c          61  0.70794139999999994        3.7805373434125003E-002  0.70794139999999994        0.0000000000000000        1.3883122752135419E-006
 chl          61   1.1611554453506926E-015   1.6401858195476245E-015  0.70794139999999994     
 chl2c          62  0.76481592499999995        3.7956103087269030E-002  0.76481592499999995        0.0000000000000000        9.7487208375790415E-006
 chl          62   1.2544402347491993E-015   1.6401858195476245E-015  0.76481592499999995     
 chl2c          63  0.72597904999999996        3.7855601011927406E-002  0.72597904999999996        0.0000000000000000        9.1266971586387620E-016
 chl          63   1.1907405430986567E-015   1.6401858195476256E-015  0.72597904999999996     
 chl2c          64  0.48435739999999999        2.5708982294816416E-002  0.48435739999999999        0.0000000000000000        5.3701156574175904E-016
 chl          64   7.9476862686625572E-016   1.6408722709021391E-015  0.48435739999999999     
 chl2c          65  0.76379975000000000        3.7953597170552002E-002  0.76379975000000000        0.0000000000000000        4.5086535356411712E-006
 chl          65   1.2527735189240215E-015   1.6401858195476256E-015  0.76379975000000000     
 chl2c          66  0.35213202499999996        3.1840477731474713E-002  0.35213202499999996        0.0000000000000000        2.0179236149403784E-019
 chl          66   5.7780367551911876E-016   1.6408722709021391E-015  0.35213202499999996     
 chl2c          67  0.75736760000000003        3.7937587124568600E-002  0.75736760000000003        0.0000000000000000        8.9453004539053126E-006
 chl          67   1.2422235977048175E-015   1.6401858195476245E-015  0.75736760000000003     
 chl2c          68  0.72590779999999999        3.7855407263856986E-002  0.72590779999999999        0.0000000000000000        9.1266971586387620E-016
 chl          68   1.1906236798590139E-015   1.6401858195476256E-015  0.72590779999999999     
 chl2c          69  0.45524217500000003        2.1732330561541505E-002  0.45524217500000003        0.0000000000000000        5.3964157631297254E-016
 chl          69   7.4699426150267911E-016   1.6408722709021391E-015  0.45524217500000003     
 chl2c          70  0.48694062500000002        3.2658010878182209E-002  0.48694062500000002        0.0000000000000000        2.8899403234916226E-008
 chl          70   7.9900736913825695E-016   1.6408722709021391E-015  0.48694062500000002     
 chl2c          71  0.23986107500000001        4.3481058864416305E-002  0.23986107500000001        0.0000000000000000        2.2566067918577301E-019
 chl          71   3.9358138683627834E-016   1.6408722709021391E-015  0.23986107500000001     
 chl2c          72  0.62790522500000001        3.7549776402781669E-002  0.62790522500000001        0.0000000000000000        9.6116602106378481E-006
 chl          72   1.0298812460648613E-015   1.6401858195476256E-015  0.62790522500000001     
 chl2c          73  0.35362212500000001        3.1852614277819484E-002  0.35362212500000001        0.0000000000000000        2.5342116643708011E-019
 chl          73   5.8024873928999012E-016   1.6408722709021391E-015  0.35362212500000001     
 chl2c          74  0.64719590000000005        3.7616827685877569E-002  0.64719590000000005        0.0000000000000000        9.3433073935356419E-016
 chl          74   1.0615215376493624E-015   1.6401858195476245E-015  0.64719590000000005     
 chl2c          75  0.71554212500000003        3.7826830779512356E-002  0.71554212500000003        0.0000000000000000        9.1266971586387620E-016
 chl          75   1.1736220467139746E-015   1.6401858195476256E-015  0.71554212500000003     
 chl2c          76  0.55513977500000000        3.7257729557919804E-002  0.55513977500000000        0.0000000000000000        9.1266971586387620E-016
 chl          76   9.1053238682185946E-016   1.6401858195476256E-015  0.55513977500000000     
 chl2c          77  0.52973029999999999        3.7138172437479272E-002  0.52973029999999999        0.0000000000000000        9.2657657272222447E-016
 chl          77   8.6885612624470890E-016   1.6401858195476245E-015  0.52973029999999999     
 chl2c          78  0.45117492500000000        4.7515248899399322E-002  0.45117492500000000        0.0000000000000000        2.9865185132447786E-018
 chl          78   7.4032042375885229E-016   1.6408722709021391E-015  0.45117492500000000     
 prod   9.1596638880940517E-010   0.0000000000000000        10.000000000000000     
 chl2c           1  0.60826437499999997        3.7477407714772232E-002  0.60826437499999997        0.0000000000000000        9.3035872980875687E-016
 chl           1   1.5588618728911200E-010   2.5628031773044739E-010  0.60826437499999997     
 chl2c           2  0.48302390000000001        3.2640259920490348E-002  0.48302390000000001        0.0000000000000000        1.5148735101295671E-019
 chl           2   1.2384132735079440E-010   2.5638757699317656E-010  0.48302390000000001     
 chl2c           3  0.75128689999999998        3.7922212503796585E-002  0.75128689999999998        0.0000000000000000        5.9665321742592433E-006
 chl           3   1.9254004543872285E-010   2.5628031773044739E-010  0.75128689999999998     
 chl2c           4  0.77318742499999993        3.7976509103863923E-002  0.77318742499999993        0.0000000000000000        9.3035872980875687E-016
 chl           4   1.9815271894418644E-010   2.5628031773044739E-010  0.77318742499999993     
 chl2c           5  0.48489679999999996        2.5710500362372445E-002  0.48489679999999996        0.0000000000000000        5.3956926406046434E-016
 chl           5   1.2432151564374493E-010   2.5638757699317656E-010  0.48489679999999996     
 chl2c           6  0.29222855000000003        3.1261039902252048E-002  0.29222855000000003        0.0000000000000000        4.2457912976824931E-009
 chl           6   7.4923769862729355E-011   2.5638757699317656E-010  0.29222855000000003     
 chl2c           7  0.22770740000000000        4.3064391842467263E-002  0.22770740000000000        0.0000000000000000        1.4782002109745446E-019
 chl           7   5.8381348549416050E-011   2.5638757699317656E-010  0.22770740000000000     
 chl2c           8  0.49578364999999996        4.7969800906495587E-002  0.49578364999999996        0.0000000000000000        1.5706667432968047E-019
 chl           8   1.2711276873633308E-010   2.5638757699317656E-010  0.49578364999999996     
 chl2c           9  0.28700202499999999        2.4803669054600401E-002  0.28700202499999999        0.0000000000000000        5.4184050548721327E-016
 chl           9   7.3583753781885076E-011   2.5638757699317656E-010  0.28700202499999999     
 chl2c          10  0.39094662499999999        2.5387016219684602E-002  0.39094662499999999        0.0000000000000000        5.4184836921321194E-016
 chl          10   1.0023385791741003E-010   2.5638757699317656E-010  0.39094662499999999     
 chl2c          11  0.49737575000000001        2.1820572217820047E-002  0.49737575000000001        0.0000000000000000        4.1497154311489465E-006
 chl          11   1.2752096339766394E-010   2.5638757699317656E-010  0.49737575000000001     
 chl2c          12  0.30768942500000002        4.5290941298723353E-002  0.30768942500000002        0.0000000000000000        1.2686116427777224E-009
 chl          12   7.8887746142173726E-011   2.5638757699317656E-010  0.30768942500000002     
 chl2c          13  0.75666275000000005        3.7935816987997487E-002  0.75666275000000005        0.0000000000000000        8.4567225954494930E-006
 chl          13   1.9391776998479379E-010   2.5628031773044697E-010  0.75666275000000005     
 chl2c          14  0.39804095000000000        4.6856526101924839E-002  0.39804095000000000        0.0000000000000000        1.7708850516020603E-018
 chl          14   1.0205275471456214E-010   2.5638757699317656E-010  0.39804095000000000     
 chl2c          15  0.25607262500000000        2.0954299823745293E-002  0.25607262500000000        0.0000000000000000        5.4323432445122473E-016
 chl          15   6.5653839858032330E-011   2.5638757699317656E-010  0.25607262500000000     
 chl2c          16  0.71433214999999994        3.7823443882273475E-002  0.71433214999999994        0.0000000000000000        7.5473494112118043E-006
 chl          16   1.8306927036707360E-010   2.5628031773044739E-010  0.71433214999999994     
 chl2c          17  0.62580860000000005        3.7542254757581245E-002  0.62580860000000005        0.0000000000000000        8.5511385584717030E-006
 chl          17   1.6038242684644646E-010   2.5628031773044739E-010  0.62580860000000005     
 chl2c          18  0.47925950000000000        2.5694475239060960E-002  0.47925950000000000        0.0000000000000000        5.4264444058157811E-016
 chl          18   1.2287618195596129E-010   2.5638757699317656E-010  0.47925950000000000     
 chl2c          19  0.63367130000000005        3.7570220750293731E-002  0.63367130000000005        0.0000000000000000        9.2840688529114943E-016
 chl          19   1.6239748210066567E-010   2.5628031773044739E-010  0.63367130000000005     
 chl2c          20  0.50678202500000002        3.7020645196759419E-002  0.50678202500000002        0.0000000000000000        8.6734690564432731E-006
 chl          20   1.2987825838707933E-010   2.5628031773044697E-010  0.50678202500000002     
 chl2c          21  0.71973185000000006        3.7838475073783531E-002  0.71973185000000006        0.0000000000000000        9.3329171864628798E-016
 chl          21   1.8445310719872242E-010   2.5628031773044697E-010  0.71973185000000006     
 chl2c          22  0.64616892500000001        3.7613353106285476E-002  0.64616892500000001        0.0000000000000000        9.3035872980875687E-016
 chl          22   1.6560037740654162E-010   2.5628031773044739E-010  0.64616892500000001     
 chl2c          23  0.41564179999999995        3.2286562315070731E-002  0.41564179999999995        0.0000000000000000        2.1622632313533759E-019
 chl          23   1.0656539399908248E-010   2.5638757699317656E-010  0.41564179999999995     
 chl2c          24  0.57597492500000003        3.7348402796863071E-002  0.57597492500000003        0.0000000000000000        3.9818983892315999E-006
 chl          24   1.4761103678377038E-010   2.5628031773044697E-010  0.57597492500000003     
 chl2c          25  0.31406487500000002        4.5426679235459781E-002  0.31406487500000002        0.0000000000000000        1.6470034330419677E-019
 chl          25   8.0522332319914880E-011   2.5638757699317656E-010  0.31406487500000002     
 chl2c          26  0.49427735000000000        4.7955660680174553E-002  0.49427735000000000        0.0000000000000000        1.3957419542504756E-009
 chl          26   1.2672657212910829E-010   2.5638757699317656E-010  0.49427735000000000     
 chl2c          27  0.30964730000000001        4.5333133499525620E-002  0.30964730000000001        0.0000000000000000        1.6171580970655496E-008
 chl          27   7.9389720969479243E-011   2.5638757699317656E-010  0.30964730000000001     
 chl2c          28  0.28776342500000002        3.1209236063453518E-002  0.28776342500000002        0.0000000000000000        1.6306819453264552E-008
 chl          28   7.3778967283007692E-011   2.5638757699317656E-010  0.28776342500000002     
 chl2c          29  0.68676297499999994        3.7743217595736761E-002  0.68676297499999994        0.0000000000000000        9.3416838128120285E-016
 chl          29   1.7600383343850700E-010   2.5628031773044697E-010  0.68676297499999994     
 chl2c          30  0.38930277499999999        2.5380056985171612E-002  0.38930277499999999        0.0000000000000000        4.9026667525172070E-006
 chl          30   9.9812395198969787E-011   2.5638757699317656E-010  0.38930277499999999     
 chl2c          31  0.63559385000000002        3.7576959810037038E-002  0.63559385000000002        0.0000000000000000        9.3635831458060940E-016
 chl          31   1.6289019382551805E-010   2.5628031773044697E-010  0.63559385000000002     
 chl2c          32  0.24722667500000001        2.0893126428578448E-002  0.24722667500000001        0.0000000000000000        5.4365783577821398E-016
 chl          32   6.3385848171329546E-011   2.5638757699317656E-010  0.24722667500000001     
 chl2c          33  0.60343137499999999        3.7458922634011876E-002  0.60343137499999999        0.0000000000000000        9.2987408637722287E-016
 chl          33   1.5464758451352050E-010   2.5628031773044697E-010  0.60343137499999999     
 chl2c          34  0.38241020000000003        2.5350269098008315E-002  0.38241020000000003        0.0000000000000000        5.3925576160006411E-016
 chl          34   9.8045224595476049E-011   2.5638757699317656E-010  0.38241020000000003     
 chl2c          35  0.49574644999999995        2.5740370148566064E-002  0.49574644999999995        0.0000000000000000        2.6437599030870169E-006
 chl          35   1.2710323111846895E-010   2.5638757699317656E-010  0.49574644999999995     
 chl2c          36  0.69587337500000002        3.7770393924465726E-002  0.69587337500000002        0.0000000000000000        4.1335630373462410E-006
 chl          36   1.7833864964515876E-010   2.5628031773044739E-010  0.69587337500000002     
 chl2c          37  0.33194060000000003        2.1353674699533250E-002  0.33194060000000003        0.0000000000000000        5.3891097714082299E-016
 chl          37   8.5105446139661225E-011   2.5638757699317656E-010  0.33194060000000003     
 chl2c          38  0.38455722500000000        2.1543295686358745E-002  0.38455722500000000        0.0000000000000000        1.7434235897452215E-006
 chl          38   9.8595695132969817E-011   2.5638757699317656E-010  0.38455722500000000     
 chl2c          39  0.47091117500000002        2.5670077108751441E-002  0.47091117500000002        0.0000000000000000        2.9634059813324608E-007
 chl          39   1.2073577513725975E-010   2.5638757699317656E-010  0.47091117500000002     
 chl2c          40  0.66875547499999999        3.7687445774703773E-002  0.66875547499999999        0.0000000000000000        7.5578894347140247E-006
 chl          40   1.7138886561697626E-010   2.5628031773044739E-010  0.66875547499999999     
 chl2c          41  0.44304987499999998        2.5582381488167241E-002  0.44304987499999998        0.0000000000000000        5.3742519126003393E-016
 chl          41   1.1359248393837974E-010   2.5638757699317656E-010  0.44304987499999998     
 chl2c          42  0.76234377499999995        3.7949995630725070E-002  0.76234377499999995        0.0000000000000000        7.0425573149306089E-006
 chl          42   1.9537370487682837E-010   2.5628031773044697E-010  0.76234377499999995     
 chl2c          43  0.29539925000000000        2.1185090152268007E-002  0.29539925000000000        0.0000000000000000        5.4365991699967952E-016
 chl          43   7.5736697953101608E-011   2.5638757699317656E-010  0.29539925000000000     
 chl2c          44  0.62417262500000004        3.7536352708156646E-002  0.62417262500000004        0.0000000000000000        8.6467127612117648E-006
 chl          44   1.5996315865364715E-010   2.5628031773044697E-010  0.62417262500000004     
 chl2c          45  0.37662252499999999        4.6544927192009838E-002  0.37662252499999999        0.0000000000000000        1.9908834667959863E-019
 chl          45   9.6561336625802054E-011   2.5638757699317656E-010  0.37662252499999999     
 chl2c          46  0.51876034999999998        3.7083195475449568E-002  0.51876034999999998        0.0000000000000000        9.3633138963139717E-016
 chl          46   1.3294806732395786E-010   2.5628031773044697E-010  0.51876034999999998     
 chl2c          47  0.61962282499999999        3.7519784612651236E-002  0.61962282499999999        0.0000000000000000        8.7155167290078171E-006
 chl          47   1.5879713446403713E-010   2.5628031773044697E-010  0.61962282499999999     
 chl2c          48  0.71424949999999998        3.7823212136301673E-002  0.71424949999999998        0.0000000000000000        8.0671737363679935E-006
 chl          48   1.8304808879881288E-010   2.5628031773044697E-010  0.71424949999999998     
 chl2c          49  0.53276120000000005        3.7152990741888416E-002  0.53276120000000005        0.0000000000000000        8.6958317089550373E-006
 chl          49   1.3653620961045423E-010   2.5628031773044697E-010  0.53276120000000005     
 chl2c          50  0.38132569999999999        2.1533072915600981E-002  0.38132569999999999        0.0000000000000000        5.4081514383033411E-016
 chl          50   9.7767172268226947E-011   2.5638757699317656E-010  0.38132569999999999     
 chl2c          51  0.22275920000000002        2.0700971146093840E-002  0.22275920000000002        0.0000000000000000        2.0641574316397347E-006
 chl          51   5.7112691540938419E-011   2.5638757699317656E-010  0.22275920000000002     
 chl2c          52  0.63698869999999996        3.7581825176985564E-002  0.63698869999999996        0.0000000000000000        8.1997134774022188E-006
 chl          52   1.6324766642670462E-010   2.5628031773044739E-010  0.63698869999999996     
 chl2c          53  0.75269794999999995        3.7925801262726190E-002  0.75269794999999995        0.0000000000000000        6.4626220133781467E-006
 chl          53   1.9290166978105638E-010   2.5628031773044739E-010  0.75269794999999995     
 chl2c          54  0.51861124999999997        3.7082433371327092E-002  0.51861124999999997        0.0000000000000000        8.6587814135280906E-006
 chl          54   1.3290985592858425E-010   2.5628031773044697E-010  0.51861124999999997     
 chl2c          55  0.57808280000000001        3.7357235588660491E-002  0.57808280000000001        0.0000000000000000        9.3784990207829790E-016
 chl          55   1.4815124365850644E-010   2.5628031773044697E-010  0.57808280000000001     
 chl2c          56  0.61626080000000005        3.7507394187257688E-002  0.61626080000000005        0.0000000000000000        3.0163548152260762E-006
 chl          56   1.5793551362881972E-010   2.5628031773044739E-010  0.61626080000000005     
 chl2c          57  0.68163462500000005        3.7727617852646313E-002  0.68163462500000005        0.0000000000000000        9.3832721609241943E-016
 chl          57   1.7468953827107409E-010   2.5628031773044697E-010  0.68163462500000005     
 chl2c          58  0.69416802499999997        3.7765358178394853E-002  0.69416802499999997        0.0000000000000000        9.3035872980875687E-016
 chl          58   1.7790160200531712E-010   2.5628031773044739E-010  0.69416802499999997     
 chl2c          59  0.53705127500000005        3.7173699120809672E-002  0.53705127500000005        0.0000000000000000        9.3909779673855597E-016
 chl          59   1.3763567139454167E-010   2.5628031773044697E-010  0.53705127500000005     
 chl2c          60  0.64452155000000000        3.7607757740906807E-002  0.64452155000000000        0.0000000000000000        9.2749716742468459E-016
 chl          60   1.6517818761812016E-010   2.5628031773044697E-010  0.64452155000000000     
 chl2c          61  0.70794139999999994        3.7805373434125003E-002  0.70794139999999994        0.0000000000000000        6.0476899028109541E-006
 chl          61   1.8143144692653745E-010   2.5628031773044697E-010  0.70794139999999994     
 chl2c          62  0.76481592499999995        3.7956103087269030E-002  0.76481592499999995        0.0000000000000000        7.9291250396359683E-006
 chl          62   1.9600726826430569E-010   2.5628031773044697E-010  0.76481592499999995     
 chl2c          63  0.72597904999999996        3.7855601011927406E-002  0.72597904999999996        0.0000000000000000        9.2795548283002333E-016
 chl          63   1.8605414159964835E-010   2.5628031773044739E-010  0.72597904999999996     
 chl2c          64  0.48435739999999999        2.5708982294816416E-002  0.48435739999999999        0.0000000000000000        3.3470837148939312E-006
 chl          64   1.2418322018471481E-010   2.5638757699317656E-010  0.48435739999999999     
 chl2c          65  0.76379975000000000        3.7953597170552002E-002  0.76379975000000000        0.0000000000000000        9.3035872980875687E-016
 chl          65   1.9574684261243628E-010   2.5628031773044739E-010  0.76379975000000000     
 chl2c          66  0.35213202499999996        3.1840477731474713E-002  0.35213202499999996        0.0000000000000000        7.9254676798382305E-010
 chl          66   9.0282276671450659E-011   2.5638757699317656E-010  0.35213202499999996     
 chl2c          67  0.75736760000000003        3.7937587124568600E-002  0.75736760000000003        0.0000000000000000        8.6990951875144945E-006
 chl          67   1.9409840916674608E-010   2.5628031773044697E-010  0.75736760000000003     
 chl2c          68  0.72590779999999999        3.7855407263856986E-002  0.72590779999999999        0.0000000000000000        9.3035872980875687E-016
 chl          68   1.8603588162701004E-010   2.5628031773044739E-010  0.72590779999999999     
 chl2c          69  0.45524217500000003        2.1732330561541505E-002  0.45524217500000003        0.0000000000000000        5.3964157532267718E-016
 chl          69   1.1671843819335365E-010   2.5638757699317656E-010  0.45524217500000003     
 chl2c          70  0.48694062500000002        3.2658010878182209E-002  0.48694062500000002        0.0000000000000000        2.0173798485840044E-008
 chl          70   1.2484552698329302E-010   2.5638757699317656E-010  0.48694062500000002     
 chl2c          71  0.23986107500000001        4.3481058864416305E-002  0.23986107500000001        0.0000000000000000        1.8309006472084189E-019
 chl          71   6.1497399834228604E-011   2.5638757699317656E-010  0.23986107500000001     
 chl2c          72  0.62790522500000001        3.7549776402781669E-002  0.62790522500000001        0.0000000000000000        8.4385098382244621E-006
 chl          72   1.6091975056760805E-010   2.5628031773044739E-010  0.62790522500000001     
 chl2c          73  0.35362212500000001        3.1852614277819484E-002  0.35362212500000001        0.0000000000000000        1.5416574648815450E-010
 chl          73   9.0664319799928209E-011   2.5638757699317656E-010  0.35362212500000001     
 chl2c          74  0.64719590000000005        3.7616827685877569E-002  0.64719590000000005        0.0000000000000000        9.3433073678378333E-016
 chl          74   1.6586357088584260E-010   2.5628031773044697E-010  0.64719590000000005     
 chl2c          75  0.71554212500000003        3.7826830779512356E-002  0.71554212500000003        0.0000000000000000        4.6789398724386292E-006
 chl          75   1.8337936314451951E-010   2.5628031773044739E-010  0.71554212500000003     
 chl2c          76  0.55513977500000000        3.7257729557919804E-002  0.55513977500000000        0.0000000000000000        9.3035872980875687E-016
 chl          76   1.4227139792180908E-010   2.5628031773044739E-010  0.55513977500000000     
 chl2c          77  0.52973029999999999        3.7138172437479272E-002  0.52973029999999999        0.0000000000000000        9.2657656951889561E-016
 chl          77   1.3575944959544500E-010   2.5628031773044697E-010  0.52973029999999999     
 chl2c          78  0.45117492500000000        4.7515248899399322E-002  0.45117492500000000        0.0000000000000000        2.2281186672165023E-018
 chl          78   1.1567564582082816E-010   2.5638757699317656E-010  0.45117492500000000     
 prod   7.4311301466200751E-010   0.0000000000000000        10.000000000000000     
 chl2c           1  0.60826437499999997        3.7477407714772232E-002  0.60826437499999997        0.0000000000000000        9.3573034035978256E-016
 chl           1   7.4057128263025399E-010   1.2175154637820997E-009  0.60826437499999997     
 chl2c           2  0.48302390000000001        3.2640259920490348E-002  0.48302390000000001        0.0000000000000000        1.1022109768938106E-019
 chl           2   5.8823478813089936E-010   1.2178171476212655E-009  0.48302390000000001     
 chl2c           3  0.75128689999999998        3.7922212503796585E-002  0.75128689999999998        0.0000000000000000        7.1681604106004282E-006
 chl           3   9.1470341848691594E-010   1.2175154637820997E-009  0.75128689999999998     
 chl2c           4  0.77318742499999993        3.7976509103863923E-002  0.77318742499999993        0.0000000000000000        9.3825301413738677E-016
 chl           4   9.4136764633936235E-010   1.2175154637820997E-009  0.77318742499999993     
 chl2c           5  0.48489679999999996        2.5710500362372445E-002  0.48489679999999996        0.0000000000000000        5.3956926288178289E-016
 chl           5   5.9051563786667924E-010   1.2178171476212655E-009  0.48489679999999996     
 chl2c           6  0.29222855000000003        3.1261039902252048E-002  0.29222855000000003        0.0000000000000000        1.5883533331801407E-018
 chl           6   3.5588093921449840E-010   1.2178171476212655E-009  0.29222855000000003     
 chl2c           7  0.22770740000000000        4.3064391842467263E-002  0.22770740000000000        0.0000000000000000        1.0755258004284304E-019
 chl           7   2.7730597636025458E-010   1.2178171476212655E-009  0.22770740000000000     
 chl2c           8  0.49578364999999996        4.7969800906495587E-002  0.49578364999999996        0.0000000000000000        1.1428088809058609E-019
 chl           8   6.0377383048025980E-010   1.2178171476212655E-009  0.49578364999999996     
 chl2c           9  0.28700202499999999        2.4803669054600401E-002  0.28700202499999999        0.0000000000000000        5.4184050453578174E-016
 chl           9   3.4951598744702711E-010   1.2178171476212655E-009  0.28700202499999999     
 chl2c          10  0.39094662499999999        2.5387016219684602E-002  0.39094662499999999        0.0000000000000000        5.4184836826257055E-016
 chl          10   4.7610150372966050E-010   1.2178171476212655E-009  0.39094662499999999     
 chl2c          11  0.49737575000000001        2.1820572217820047E-002  0.49737575000000001        0.0000000000000000        4.5880221075898430E-006
 chl          11   6.0571271716098760E-010   1.2178171476212655E-009  0.49737575000000001     
 chl2c          12  0.30768942500000002        4.5290941298723353E-002  0.30768942500000002        0.0000000000000000        5.8821842702828199E-010
 chl          12   3.7470945790672730E-010   1.2178171476212655E-009  0.30768942500000002     
 chl2c          13  0.75666275000000005        3.7935816987997487E-002  0.75666275000000005        0.0000000000000000        7.2644133315283051E-006
 chl          13   9.2124859887691586E-010   1.2175154636288304E-009  0.75666275000000005     
 chl2c          14  0.39804095000000000        4.6856526101924839E-002  0.39804095000000000        0.0000000000000000        1.5755723828058401E-009
 chl          14   4.8474109436545873E-010   1.2178171476212655E-009  0.39804095000000000     
 chl2c          15  0.25607262500000000        2.0954299823745293E-002  0.25607262500000000        0.0000000000000000        5.4323432364021616E-016
 chl          15   3.1184963376138998E-010   1.2178171476212655E-009  0.25607262500000000     
 chl2c          16  0.71433214999999994        3.7823443882273475E-002  0.71433214999999994        0.0000000000000000        5.5527328032102665E-006
 chl          16   8.6971043890171434E-010   1.2175154637820997E-009  0.71433214999999994     
 chl2c          17  0.62580860000000005        3.7542254757581245E-002  0.62580860000000005        0.0000000000000000        8.2298619920991934E-006
 chl          17   7.6193164786782656E-010   1.2175154637820997E-009  0.62580860000000005     
 chl2c          18  0.47925950000000000        2.5694475239060960E-002  0.47925950000000000        0.0000000000000000        1.3385748814036258E-006
 chl          18   5.8365043726039388E-010   1.2178171476212655E-009  0.47925950000000000     
 chl2c          19  0.63367130000000005        3.7570220750293731E-002  0.63367130000000005        0.0000000000000000        9.2840688167748649E-016
 chl          19   7.7150460670490611E-010   1.2175154637820997E-009  0.63367130000000005     
 chl2c          20  0.50678202500000002        3.7020645196759419E-002  0.50678202500000002        0.0000000000000000        7.8267035521307414E-006
 chl          20   6.1701495212663250E-010   1.2175154636288304E-009  0.50678202500000002     
 chl2c          21  0.71973185000000006        3.7838475073783531E-002  0.71973185000000006        0.0000000000000000        9.3329171550517283E-016
 chl          21   8.7628465704118588E-010   1.2175154636288304E-009  0.71973185000000006     
 chl2c          22  0.64616892500000001        3.7613353106285476E-002  0.64616892500000001        0.0000000000000000        9.3808795701577292E-016
 chl          22   7.8672065840295577E-010   1.2175154637820997E-009  0.64616892500000001     
 chl2c          23  0.41564179999999995        3.2286562315070731E-002  0.41564179999999995        0.0000000000000000        1.5732973974056901E-019
 chl          23   5.0617571130816848E-010   1.2178171476212655E-009  0.41564179999999995     
 chl2c          24  0.57597492500000003        3.7348402796863071E-002  0.57597492500000003        0.0000000000000000        5.8744246552038641E-006
 chl          24   7.0125837784995579E-010   1.2175154636288304E-009  0.57597492500000003     
 chl2c          25  0.31406487500000002        4.5426679235459781E-002  0.31406487500000002        0.0000000000000000        1.1983555784473880E-019
 chl          25   3.8247359024052933E-010   1.2178171476212655E-009  0.31406487500000002     
 chl2c          26  0.49427735000000000        4.7955660680174553E-002  0.49427735000000000        0.0000000000000000        9.5526877099084000E-010
 chl          26   6.0193943251079791E-010   1.2178171476212655E-009  0.49427735000000000     
 chl2c          27  0.30964730000000001        4.5333133499525620E-002  0.30964730000000001        0.0000000000000000        1.0536606337940944E-008
 chl          27   3.7709379165462630E-010   1.2178171476212655E-009  0.30964730000000001     
 chl2c          28  0.28776342500000002        3.1209236063453518E-002  0.28776342500000002        0.0000000000000000        1.0460510490441923E-008
 chl          28   3.5044323342322601E-010   1.2178171476212655E-009  0.28776342500000002     
 chl2c          29  0.68676297499999994        3.7743217595736761E-002  0.68676297499999994        0.0000000000000000        9.3416837822543890E-016
 chl          29   8.3614454191023975E-010   1.2175154636288304E-009  0.68676297499999994     
 chl2c          30  0.38930277499999999        2.5380056985171612E-002  0.38930277499999999        0.0000000000000000        4.7651324442142679E-006
 chl          30   4.7409959501154331E-010   1.2178171476212655E-009  0.38930277499999999     
 chl2c          31  0.63559385000000002        3.7576959810037038E-002  0.63559385000000002        0.0000000000000000        9.3635831173877940E-016
 chl          31   7.7384534096238328E-010   1.2175154636288304E-009  0.63559385000000002     
 chl2c          32  0.24722667500000001        2.0893126428578448E-002  0.24722667500000001        0.0000000000000000        5.4365783501001798E-016
 chl          32   3.0107688416438963E-010   1.2178171476212655E-009  0.24722667500000001     
 chl2c          33  0.60343137499999999        3.7458922634011876E-002  0.60343137499999999        0.0000000000000000        9.2987408290495299E-016
 chl          33   7.3468703030130755E-010   1.2175154636288304E-009  0.60343137499999999     
 chl2c          34  0.38241020000000003        2.5350269098008315E-002  0.38241020000000003        0.0000000000000000        5.3925576039016783E-016
 chl          34   4.6570569898527770E-010   1.2178171476212655E-009  0.38241020000000003     
 chl2c          35  0.49574644999999995        2.5740370148566064E-002  0.49574644999999995        0.0000000000000000        3.9412019507963636E-006
 chl          35   6.0372852768236825E-010   1.2178171476212655E-009  0.49574644999999995     
 chl2c          36  0.69587337500000002        3.7770393924465726E-002  0.69587337500000002        0.0000000000000000        5.9874104858297140E-006
 chl          36   8.4723659489674004E-010   1.2175154637820997E-009  0.69587337500000002     
 chl2c          37  0.33194060000000003        2.1353674699533250E-002  0.33194060000000003        0.0000000000000000        2.4829244252449278E-007
 chl          37   4.0424295467169147E-010   1.2178171476212655E-009  0.33194060000000003     
 chl2c          38  0.38455722500000000        2.1543295686358745E-002  0.38455722500000000        0.0000000000000000        3.4160501240624481E-006
 chl          38   4.6832038284664926E-010   1.2178171476212655E-009  0.38455722500000000     
 chl2c          39  0.47091117500000002        2.5670077108751441E-002  0.47091117500000002        0.0000000000000000        2.2084239178015402E-006
 chl          39   5.7348370392147863E-010   1.2178171476212655E-009  0.47091117500000002     
 chl2c          40  0.66875547499999999        3.7687445774703773E-002  0.66875547499999999        0.0000000000000000        5.5704446615000766E-006
 chl          40   8.1422013230144339E-010   1.2175154637820997E-009  0.66875547499999999     
 chl2c          41  0.44304987499999998        2.5582381488167241E-002  0.44304987499999998        0.0000000000000000        5.3742518986861277E-016
 chl          41   5.3955373502645826E-010   1.2178171476212655E-009  0.44304987499999998     
 chl2c          42  0.76234377499999995        3.7949995630725070E-002  0.76234377499999995        0.0000000000000000        4.6898281702616441E-006
 chl          42   9.2816533466367768E-010   1.2175154636288304E-009  0.76234377499999995     
 chl2c          43  0.29539925000000000        2.1185090152268007E-002  0.29539925000000000        0.0000000000000000        5.4365991623169415E-016
 chl          43   3.5974227204446112E-010   1.2178171476212655E-009  0.29539925000000000     
 chl2c          44  0.62417262500000004        3.7536352708156646E-002  0.62417262500000004        0.0000000000000000        7.9082608389611831E-006
 chl          44   7.5993982291129917E-010   1.2175154636288304E-009  0.62417262500000004     
 chl2c          45  0.37662252499999999        4.6544927192009838E-002  0.37662252499999999        0.0000000000000000        1.4485864586872889E-019
 chl          45   4.5865736912541875E-010   1.2178171476212655E-009  0.37662252499999999     
 chl2c          46  0.51876034999999998        3.7083195475449568E-002  0.51876034999999998        0.0000000000000000        9.3633138678693060E-016
 chl          46   6.3159874804250426E-010   1.2175154636288304E-009  0.51876034999999998     
 chl2c          47  0.61962282499999999        3.7519784612651236E-002  0.61962282499999999        0.0000000000000000        8.2275108488920332E-006
 chl          47   7.5440037105488058E-010   1.2175154636288304E-009  0.61962282499999999     
 chl2c          48  0.71424949999999998        3.7823212136301673E-002  0.71424949999999998        0.0000000000000000        6.3881579167494602E-006
 chl          48   8.6960981113916030E-010   1.2175154636288304E-009  0.71424949999999998     
 chl2c          49  0.53276120000000005        3.7152990741888416E-002  0.53276120000000005        0.0000000000000000        8.1975817460636187E-006
 chl          49   6.4864499942145208E-010   1.2175154636288304E-009  0.53276120000000005     
 chl2c          50  0.38132569999999999        2.1533072915600981E-002  0.38132569999999999        0.0000000000000000        5.4081514277606845E-016
 chl          50   4.6438497628868240E-010   1.2178171476212655E-009  0.38132569999999999     
 chl2c          51  0.22275920000000002        2.0700971146093840E-002  0.22275920000000002        0.0000000000000000        3.6262995028751354E-006
 chl          51   2.7127997355039504E-010   1.2178171476212655E-009  0.22275920000000002     
 chl2c          52  0.63698869999999996        3.7581825176985564E-002  0.63698869999999996        0.0000000000000000        6.7652579914104519E-006
 chl          52   7.7554359250445677E-010   1.2175154637820997E-009  0.63698869999999996     
 chl2c          53  0.75269794999999995        3.7925801262726190E-002  0.75269794999999995        0.0000000000000000        3.9139954924967843E-006
 chl          53   9.1642139368208563E-010   1.2175154637820997E-009  0.75269794999999995     
 chl2c          54  0.51861124999999997        3.7082433371327092E-002  0.51861124999999997        0.0000000000000000        8.1562117471767295E-006
 chl          54   6.3141721648687719E-010   1.2175154636288304E-009  0.51861124999999997     
 chl2c          55  0.57808280000000001        3.7357235588660491E-002  0.57808280000000001        0.0000000000000000        9.3784989938277261E-016
 chl          55   7.0382474825785239E-010   1.2175154636288304E-009  0.57808280000000001     
 chl2c          56  0.61626080000000005        3.7507394187257688E-002  0.61626080000000005        0.0000000000000000        5.2150144573855917E-006
 chl          56   7.5030705372272785E-010   1.2175154637820997E-009  0.61626080000000005     
 chl2c          57  0.68163462500000005        3.7727617852646313E-002  0.68163462500000005        0.0000000000000000        9.3832721344381381E-016
 chl          57   8.2990069648233898E-010   1.2175154636288304E-009  0.68163462500000005     
 chl2c          58  0.69416802499999997        3.7765358178394853E-002  0.69416802499999997        0.0000000000000000        9.3738619325425331E-016
 chl          58   8.4516030490057911E-010   1.2175154637820997E-009  0.69416802499999997     
 chl2c          59  0.53705127500000005        3.7173699120809672E-002  0.53705127500000005        0.0000000000000000        9.3909779416580130E-016
 chl          59   6.5386823207407950E-010   1.2175154636288304E-009  0.53705127500000005     
 chl2c          60  0.64452155000000000        3.7607757740906807E-002  0.64452155000000000        0.0000000000000000        9.2749716372358588E-016
 chl          60   7.8471495376702238E-010   1.2175154636288304E-009  0.64452155000000000     
 chl2c          61  0.70794139999999994        3.7805373434125003E-002  0.70794139999999994        0.0000000000000000        7.1718370010506496E-006
 chl          61   8.6192960184304321E-010   1.2175154636288304E-009  0.70794139999999994     
 chl2c          62  0.76481592499999995        3.7956103087269030E-002  0.76481592499999995        0.0000000000000000        6.2022001188629253E-006
 chl          62   9.3117521551708773E-010   1.2175154636288304E-009  0.76481592499999995     
 chl2c          63  0.72597904999999996        3.7855601011927406E-002  0.72597904999999996        0.0000000000000000        9.2795547917295233E-016
 chl          63   8.8389071975683810E-010   1.2175154637820997E-009  0.72597904999999996     
 chl2c          64  0.48435739999999999        2.5708982294816416E-002  0.48435739999999999        0.0000000000000000        4.2626553400991300E-006
 chl          64   5.8985874729725237E-010   1.2178171476212655E-009  0.48435739999999999     
 chl2c          65  0.76379975000000000        3.7953597170552002E-002  0.76379975000000000        0.0000000000000000        9.3121322012359124E-016
 chl          65   9.2993800685790184E-010   1.2175154637820997E-009  0.76379975000000000     
 chl2c          66  0.35213202499999996        3.1840477731474713E-002  0.35213202499999996        0.0000000000000000        8.6588496967104612E-010
 chl          66   4.2883241827160010E-010   1.2178171476212655E-009  0.35213202499999996     
 chl2c          67  0.75736760000000003        3.7937587124568600E-002  0.75736760000000003        0.0000000000000000        8.1960367380030333E-006
 chl          67   9.2210676465145462E-010   1.2175154636288304E-009  0.75736760000000003     
 chl2c          68  0.72590779999999999        3.7855407263856986E-002  0.72590779999999999        0.0000000000000000        9.3825301413738677E-016
 chl          68   8.8380397178004366E-010   1.2175154637820997E-009  0.72590779999999999     
 chl2c          69  0.45524217500000003        2.1732330561541505E-002  0.45524217500000003        0.0000000000000000        5.3964157415120079E-016
 chl          69   5.5440172703540104E-010   1.2178171476212655E-009  0.45524217500000003     
 chl2c          70  0.48694062500000002        3.2658010878182209E-002  0.48694062500000002        0.0000000000000000        1.2942076474263690E-008
 chl          70   5.9300464299841630E-010   1.2178171476212655E-009  0.48694062500000002     
 chl2c          71  0.23986107500000001        4.3481058864416305E-002  0.23986107500000001        0.0000000000000000        1.3321708433255962E-019
 chl          71   2.9210693018187045E-010   1.2178171476212655E-009  0.23986107500000001     
 chl2c          72  0.62790522500000001        3.7549776402781669E-002  0.62790522500000001        0.0000000000000000        7.3083053905956084E-006
 chl          72   7.6448432122707864E-010   1.2175154637820997E-009  0.62790522500000001     
 chl2c          73  0.35362212500000001        3.1852614277819484E-002  0.35362212500000001        0.0000000000000000        6.4044931280780837E-010
 chl          73   4.3064708760327061E-010   1.2178171476212655E-009  0.35362212500000001     
 chl2c          74  0.64719590000000005        3.7616827685877569E-002  0.64719590000000005        0.0000000000000000        9.3433073374384433E-016
 chl          74   7.8797101624717815E-010   1.2175154636288304E-009  0.64719590000000005     
 chl2c          75  0.71554212500000003        3.7826830779512356E-002  0.71554212500000003        0.0000000000000000        6.3541957102623998E-006
 chl          75   8.7118360217500421E-010   1.2175154637820997E-009  0.71554212500000003     
 chl2c          76  0.55513977500000000        3.7257729557919804E-002  0.55513977500000000        0.0000000000000000        9.3441755766705190E-016
 chl          76   6.7589126062301544E-010   1.2175154637820997E-009  0.55513977500000000     
 chl2c          77  0.52973029999999999        3.7138172437479272E-002  0.52973029999999999        0.0000000000000000        9.2657656572949714E-016
 chl          77   6.4495483180273937E-010   1.2175154636288304E-009  0.52973029999999999     
 chl2c          78  0.45117492500000000        4.7515248899399322E-002  0.45117492500000000        0.0000000000000000        1.5231993246366263E-018
 chl          78   5.4944856024173836E-010   1.2178171476212655E-009  0.45117492500000000     
 prod   5.4064314786736354E-010   0.0000000000000000        10.000000000000000     
 chl2c           1  0.60826437499999997        3.7477407714772232E-002  0.60826437499999997        0.0000000000000000        9.3573033601044470E-016
 chl           1   2.0329301842799654E-010   3.3421818995728058E-010  0.60826437499999997     
 chl2c           2  0.48302390000000001        3.2640259920490348E-002  0.48302390000000001        0.0000000000000000        4.8829835284281444E-020
 chl           2   1.6134608256471490E-010   3.3403333161095113E-010  0.48302390000000001     
 chl2c           3  0.75128689999999998        3.7922212503796585E-002  0.75128689999999998        0.0000000000000000        7.3531401384656603E-006
 chl           3   2.5109374785661644E-010   3.3421818995728058E-010  0.75128689999999998     
 chl2c           4  0.77318742499999993        3.7976509103863923E-002  0.77318742499999993        0.0000000000000000        9.3841762902401853E-016
 chl           4   2.5841330168123059E-010   3.3421818995728058E-010  0.77318742499999993     
 chl2c           5  0.48489679999999996        2.5710500362372445E-002  0.48489679999999996        0.0000000000000000        5.3956926111602799E-016
 chl           5   1.6197169359148904E-010   3.3403333161095113E-010  0.48489679999999996     
 chl2c           6  0.29222855000000003        3.1261039902252048E-002  0.29222855000000003        0.0000000000000000        6.5021791430047941E-019
 chl           6   9.7614076148337420E-011   3.3403333161095113E-010  0.29222855000000003     
 chl2c           7  0.22770740000000000        4.3064391842467263E-002  0.22770740000000000        0.0000000000000000        4.7647507712493114E-020
 chl           7   7.6061861454467493E-011   3.3403333161095113E-010  0.22770740000000000     
 chl2c           8  0.49578364999999996        4.7969800906495587E-002  0.49578364999999996        0.0000000000000000        5.0628599769805059E-020
 chl           8   1.6560826436773771E-010   3.3403333161095113E-010  0.49578364999999996     
 chl2c           9  0.28700202499999999        2.4803669054600401E-002  0.28700202499999999        0.0000000000000000        5.4184050311046460E-016
 chl           9   9.5868242589839483E-011   3.3403333161095113E-010  0.28700202499999999     
 chl2c          10  0.39094662499999999        2.5387016219684602E-002  0.39094662499999999        0.0000000000000000        5.4184836683843720E-016
 chl          10   1.3058920363080716E-010   3.3403333161095113E-010  0.39094662499999999     
 chl2c          11  0.49737575000000001        2.1820572217820047E-002  0.49737575000000001        0.0000000000000000        4.5798996115443656E-006
 chl          11   1.6614007883499552E-010   3.3403333161095113E-010  0.49737575000000001     
 chl2c          12  0.30768942500000002        4.5290941298723353E-002  0.30768942500000002        0.0000000000000000        1.9126980764857761E-010
 chl          12   1.0277852373420788E-010   3.3403333161095113E-010  0.30768942500000002     
 chl2c          13  0.75666275000000005        3.7935816987997487E-002  0.75666275000000005        0.0000000000000000        6.6762406504188658E-006
 chl          13   2.5289045471105165E-010   3.3421818995457570E-010  0.75666275000000005     
 chl2c          14  0.39804095000000000        4.6856526101924839E-002  0.39804095000000000        0.0000000000000000        1.2769856792122519E-009
 chl          14   1.3295894464608801E-010   3.3403333161095113E-010  0.39804095000000000     
 chl2c          15  0.25607262500000000        2.0954299823745293E-002  0.25607262500000000        0.0000000000000000        5.4323432242526338E-016
 chl          15   8.5536792063111728E-011   3.3403333161095113E-010  0.25607262500000000     
 chl2c          16  0.71433214999999994        3.7823443882273475E-002  0.71433214999999994        0.0000000000000000        4.6388207603249374E-006
 chl          16   2.3874279820129261E-010   3.3421818995728058E-010  0.71433214999999994     
 chl2c          17  0.62580860000000005        3.7542254757581245E-002  0.62580860000000005        0.0000000000000000        8.0532694309533499E-006
 chl          17   2.0915661755169983E-010   3.3421818995728058E-010  0.62580860000000005     
 chl2c          18  0.47925950000000000        2.5694475239060960E-002  0.47925950000000000        0.0000000000000000        2.0206676291216468E-006
 chl          18   1.6008864749119863E-010   3.3403333161095113E-010  0.47925950000000000     
 chl2c          19  0.63367130000000005        3.7570220750293731E-002  0.63367130000000005        0.0000000000000000        9.2840687626394371E-016
 chl          19   2.1178447491387695E-010   3.3421818995728058E-010  0.63367130000000005     
 chl2c          20  0.50678202500000002        3.7020645196759419E-002  0.50678202500000002        0.0000000000000000        7.4097144438681126E-006
 chl          20   1.6937577109701454E-010   3.3421818995457570E-010  0.50678202500000002     
 chl2c          21  0.71973185000000006        3.7838475073783531E-002  0.71973185000000006        0.0000000000000000        9.3329171079954318E-016
 chl          21   2.4054747615965819E-010   3.3421818995457570E-010  0.71973185000000006     
 chl2c          22  0.64616892500000001        3.7613353106285476E-002  0.64616892500000001        0.0000000000000000        9.3808795301271778E-016
 chl          22   2.1596140852014180E-010   3.3421818995728058E-010  0.64616892500000001     
 chl2c          23  0.41564179999999995        3.2286562315070731E-002  0.41564179999999995        0.0000000000000000        6.9703090131638242E-020
 chl          23   1.3883821521077262E-010   3.3403333161095113E-010  0.41564179999999995     
 chl2c          24  0.57597492500000003        3.7348402796863071E-002  0.57597492500000003        0.0000000000000000        6.3264216847276144E-006
 chl          24   1.9250129689272251E-010   3.3421818995457570E-010  0.57597492500000003     
 chl2c          25  0.31406487500000002        4.5426679235459781E-002  0.31406487500000002        0.0000000000000000        5.3089721846587466E-020
 chl          25   1.0490813653822692E-010   3.3403333161095113E-010  0.31406487500000002     
 chl2c          26  0.49427735000000000        4.7955660680174553E-002  0.49427735000000000        0.0000000000000000        4.1347645534842644E-010
 chl          26   1.6510510996033216E-010   3.3403333161095113E-010  0.49427735000000000     
 chl2c          27  0.30964730000000001        4.5333133499525620E-002  0.30964730000000001        0.0000000000000000        4.2148985392847370E-009
 chl          27   1.0343251924333567E-010   3.3403333161095113E-010  0.30964730000000001     
 chl2c          28  0.28776342500000002        3.1209236063453518E-002  0.28776342500000002        0.0000000000000000        4.1664058073995568E-009
 chl          28   9.6122575568528066E-011   3.3403333161095113E-010  0.28776342500000002     
 chl2c          29  0.68676297499999994        3.7743217595736761E-002  0.68676297499999994        0.0000000000000000        9.3416837364767158E-016
 chl          29   2.2952867843231949E-010   3.3421818995457570E-010  0.68676297499999994     
 chl2c          30  0.38930277499999999        2.5380056985171612E-002  0.38930277499999999        0.0000000000000000        4.6645660143122663E-006
 chl          30   1.3004010293863849E-010   3.3403333161095113E-010  0.38930277499999999     
 chl2c          31  0.63559385000000002        3.7576959810037038E-002  0.63559385000000002        0.0000000000000000        9.3635830748150141E-016
 chl          31   2.1242702609326010E-010   3.3421818995457570E-010  0.63559385000000002     
 chl2c          32  0.24722667500000001        2.0893126428578448E-002  0.24722667500000001        0.0000000000000000        5.4365783385920186E-016
 chl          32   8.2581949913347844E-011   3.3403333161095113E-010  0.24722667500000001     
 chl2c          33  0.60343137499999999        3.7458922634011876E-002  0.60343137499999999        0.0000000000000000        9.2987407770322804E-016
 chl          33   2.0167774191430080E-010   3.3421818995457570E-010  0.60343137499999999     
 chl2c          34  0.38241020000000003        2.5350269098008315E-002  0.38241020000000003        0.0000000000000000        5.3925575857765103E-016
 chl          34   1.2773775314801015E-010   3.3403333161095113E-010  0.38241020000000003     
 chl2c          35  0.49574644999999995        2.5740370148566064E-002  0.49574644999999995        0.0000000000000000        4.1661950901188334E-006
 chl          35   1.6559583832780179E-010   3.3403333161095113E-010  0.49574644999999995     
 chl2c          36  0.69587337500000002        3.7770393924465726E-002  0.69587337500000002        0.0000000000000000        6.4219223944459307E-006
 chl          36   2.3257353983196395E-010   3.3421818995728058E-010  0.69587337500000002     
 chl2c          37  0.33194060000000003        2.1353674699533250E-002  0.33194060000000003        0.0000000000000000        9.1429746637989586E-007
 chl          37   1.1087922451493809E-010   3.3403333161095113E-010  0.33194060000000003     
 chl2c          38  0.38455722500000000        2.1543295686358745E-002  0.38455722500000000        0.0000000000000000        3.7941999659979571E-006
 chl          38   1.2845493106181215E-010   3.3403333161095113E-010  0.38455722500000000     
 chl2c          39  0.47091117500000002        2.5670077108751441E-002  0.47091117500000002        0.0000000000000000        2.8085342218265244E-006
 chl          39   1.5730002867807764E-010   3.3403333161095113E-010  0.47091117500000002     
 chl2c          40  0.66875547499999999        3.7687445774703773E-002  0.66875547499999999        0.0000000000000000        4.6586386357591688E-006
 chl          40   2.2351024437852139E-010   3.3421818995728058E-010  0.66875547499999999     
 chl2c          41  0.44304987499999998        2.5582381488167241E-002  0.44304987499999998        0.0000000000000000        5.3742518778415758E-016
 chl          41   1.4799342581606543E-010   3.3403333161095113E-010  0.44304987499999998     
 chl2c          42  0.76234377499999995        3.7949995630725070E-002  0.76234377499999995        0.0000000000000000        3.7002762762466724E-006
 chl          42   2.5478915660363832E-010   3.3421818995457570E-010  0.76234377499999995     
 chl2c          43  0.29539925000000000        2.1185090152268007E-002  0.29539925000000000        0.0000000000000000        5.4365991508119337E-016
 chl          43   9.8673195632876258E-011   3.3403333161095113E-010  0.29539925000000000     
 chl2c          44  0.62417262500000004        3.7536352708156646E-002  0.62417262500000004        0.0000000000000000        7.5523756818914243E-006
 chl          44   2.0860984494669617E-010   3.3421818995457570E-010  0.62417262500000004     
 chl2c          45  0.37662252499999999        4.6544927192009838E-002  0.37662252499999999        0.0000000000000000        6.4177109685532953E-020
 chl          45   1.2580447678547873E-010   3.3403333161095113E-010  0.37662252499999999     
 chl2c          46  0.51876034999999998        3.7083195475449568E-002  0.51876034999999998        0.0000000000000000        9.3633138252570278E-016
 chl          46   1.7337914519720218E-010   3.3421818995457570E-010  0.51876034999999998     
 chl2c          47  0.61962282499999999        3.7519784612651236E-002  0.61962282499999999        0.0000000000000000        8.0414645179966248E-006
 chl          47   2.0708921902604081E-010   3.3421818995457570E-010  0.61962282499999999     
 chl2c          48  0.71424949999999998        3.7823212136301673E-002  0.71424949999999998        0.0000000000000000        5.6003404080469472E-006
 chl          48   2.3871517506596072E-010   3.3421818995457570E-010  0.71424949999999998     
 chl2c          49  0.53276120000000005        3.7152990741888416E-002  0.53276120000000005        0.0000000000000000        8.0118073300685828E-006
 chl          49   1.7805848394202770E-010   3.3421818995457570E-010  0.53276120000000005     
 chl2c          50  0.38132569999999999        2.1533072915600981E-002  0.38132569999999999        0.0000000000000000        5.4081514119669812E-016
 chl          50   1.2737549399987807E-010   3.3403333161095113E-010  0.38132569999999999     
 chl2c          51  0.22275920000000002        2.0700971146093840E-002  0.22275920000000002        0.0000000000000000        3.9520805547377998E-006
 chl          51   7.4408997722990184E-011   3.3403333161095113E-010  0.22275920000000002     
 chl2c          52  0.63698869999999996        3.7581825176985564E-002  0.63698869999999996        0.0000000000000000        6.0450076357936703E-006
 chl          52   2.1289321033724121E-010   3.3421818995728058E-010  0.63698869999999996     
 chl2c          53  0.75269794999999995        3.7925801262726190E-002  0.75269794999999995        0.0000000000000000        2.8829899875789326E-006
 chl          53   2.5156534643355569E-010   3.3421818995728058E-010  0.75269794999999995     
 chl2c          54  0.51861124999999997        3.7082433371327092E-002  0.51861124999999997        0.0000000000000000        7.9712466952034163E-006
 chl          54   1.7332931326507995E-010   3.3421818995457570E-010  0.51861124999999997     
 chl2c          55  0.57808280000000001        3.7357235588660491E-002  0.57808280000000001        0.0000000000000000        9.3784989534467055E-016
 chl          55   1.9320578705987299E-010   3.3421818995457570E-010  0.57808280000000001     
 chl2c          56  0.61626080000000005        3.7507394187257688E-002  0.61626080000000005        0.0000000000000000        5.7959947825806487E-006
 chl          56   2.0596556911762571E-010   3.3421818995728058E-010  0.61626080000000005     
 chl2c          57  0.68163462500000005        3.7727617852646313E-002  0.68163462500000005        0.0000000000000000        9.3832720947600024E-016
 chl          57   2.2781469057786599E-010   3.3421818995457570E-010  0.68163462500000005     
 chl2c          58  0.69416802499999997        3.7765358178394853E-002  0.69416802499999997        0.0000000000000000        9.3738618914793647E-016
 chl          58   2.3200358084172028E-010   3.3421818995728058E-010  0.69416802499999997     
 chl2c          59  0.53705127500000005        3.7173699120809672E-002  0.53705127500000005        0.0000000000000000        9.3909779031161822E-016
 chl          59   1.7949230504329709E-010   3.3421818995457570E-010  0.53705127500000005     
 chl2c          60  0.64452155000000000        3.7607757740906807E-002  0.64452155000000000        0.0000000000000000        9.2749715817905768E-016
 chl          60   2.1541082582771757E-010   3.3421818995457570E-010  0.64452155000000000     
 chl2c          61  0.70794139999999994        3.7805373434125003E-002  0.70794139999999994        0.0000000000000000        7.3485651979929836E-006
 chl          61   2.3660689330190821E-010   3.3421818995457570E-010  0.70794139999999994     
 chl2c          62  0.76481592499999995        3.7956103087269030E-002  0.76481592499999995        0.0000000000000000        5.3986264457186054E-006
 chl          62   2.5561539410193451E-010   3.3421818995457570E-010  0.76481592499999995     
 chl2c          63  0.72597904999999996        3.7855601011927406E-002  0.72597904999999996        0.0000000000000000        9.2795547369438119E-016
 chl          63   2.4263540403790608E-010   3.3421818995728058E-010  0.72597904999999996     
 chl2c          64  0.48435739999999999        2.5708982294816416E-002  0.48435739999999999        0.0000000000000000        4.3704475804483065E-006
 chl          64   1.6179151601241809E-010   3.3403333161095113E-010  0.48435739999999999     
 chl2c          65  0.76379975000000000        3.7953597170552002E-002  0.76379975000000000        0.0000000000000000        9.3121321511580243E-016
 chl          65   2.5527576993482344E-010   3.3421818995728058E-010  0.76379975000000000     
 chl2c          66  0.35213202499999996        3.1840477731474713E-002  0.35213202499999996        0.0000000000000000        4.0606515535791485E-010
 chl          66   1.1762383347766073E-010   3.3403333161095113E-010  0.35213202499999996     
 chl2c          67  0.75736760000000003        3.7937587124568600E-002  0.75736760000000003        0.0000000000000000        8.0101976834087927E-006
 chl          67   2.5312602840224112E-010   3.3421818995457570E-010  0.75736760000000003     
 chl2c          68  0.72590779999999999        3.7855407263856986E-002  0.72590779999999999        0.0000000000000000        9.3841762902401853E-016
 chl          68   2.4261159099187166E-010   3.3421818995728058E-010  0.72590779999999999     
 chl2c          69  0.45524217500000003        2.1732330561541505E-002  0.45524217500000003        0.0000000000000000        5.3964157239623979E-016
 chl          69   1.5206606040506567E-010   3.3403333161095113E-010  0.45524217500000003     
 chl2c          70  0.48694062500000002        3.2658010878182209E-002  0.48694062500000002        0.0000000000000000        5.1547945933854820E-009
 chl          70   1.6265439926546879E-010   3.3403333161095113E-010  0.48694062500000002     
 chl2c          71  0.23986107500000001        4.3481058864416305E-002  0.23986107500000001        0.0000000000000000        5.9018823323231561E-020
 chl          71   8.0121594006034224E-011   3.3403333161095113E-010  0.23986107500000001     
 chl2c          72  0.62790522500000001        3.7549776402781669E-002  0.62790522500000001        0.0000000000000000        6.7166964986837074E-006
 chl          72   2.0985734776421900E-010   3.3421818995728058E-010  0.62790522500000001     
 chl2c          73  0.35362212500000001        3.1852614277819484E-002  0.35362212500000001        0.0000000000000000        3.5533688209395152E-010
 chl          73   1.1812157654509422E-010   3.3403333161095113E-010  0.35362212500000001     
 chl2c          74  0.64719590000000005        3.7616827685877569E-002  0.64719590000000005        0.0000000000000000        9.3433072918978404E-016
 chl          74   2.1630464224402259E-010   3.3421818995457570E-010  0.64719590000000005     
 chl2c          75  0.71554212500000003        3.7826830779512356E-002  0.71554212500000003        0.0000000000000000        6.7163984918613532E-006
 chl          75   2.3914719385568621E-010   3.3421818995728058E-010  0.71554212500000003     
 chl2c          76  0.55513977500000000        3.7257729557919804E-002  0.55513977500000000        0.0000000000000000        9.3441755312567315E-016
 chl          76   1.8553781077379200E-010   3.3421818995728058E-010  0.55513977500000000     
 chl2c          77  0.52973029999999999        3.7138172437479272E-002  0.52973029999999999        0.0000000000000000        9.2657656005268919E-016
 chl          77   1.7704550203009436E-010   3.3421818995457570E-010  0.52973029999999999     
 chl2c          78  0.45117492500000000        4.7515248899399322E-002  0.45117492500000000        0.0000000000000000        6.2350972830731065E-019
 chl          78   1.5070746333707101E-010   3.3403333161095113E-010  0.45117492500000000     
 prod   2.3948749879458960E-010   0.0000000000000000        10.000000000000000     
 chl2c           1  0.60826437499999997        3.7477407714772232E-002  0.60826437499999997        0.0000000000000000        9.3573033600439472E-016
 chl           1   2.0317936672643025E-010   3.3403134406224310E-010  0.60826437499999997     
 chl2c           2  0.48302390000000001        3.2640259920490348E-002  0.48302390000000001        0.0000000000000000        4.8809040247515215E-020
 chl           2   1.6134511772642408E-010   3.3403133411498699E-010  0.48302390000000001     
 chl2c           3  0.75128689999999998        3.7922212503796585E-002  0.75128689999999998        0.0000000000000000        7.3531435129549011E-006
 chl           3   2.5095337298335604E-010   3.3403134406224310E-010  0.75128689999999998     
 chl2c           4  0.77318742499999993        3.7976509103863923E-002  0.77318742499999993        0.0000000000000000        9.3841762495870255E-016
 chl           4   2.5826883478477475E-010   3.3403134406224310E-010  0.77318742499999993     
 chl2c           5  0.48489679999999996        2.5710500362372445E-002  0.48489679999999996        0.0000000000000000        5.3956926111357197E-016
 chl           5   1.6197072501208801E-010   3.3403133411498699E-010  0.48489679999999996     
 chl2c           6  0.29222855000000003        3.1261039902252048E-002  0.29222855000000003        0.0000000000000000        6.5018623095785097E-019
 chl           6   9.7613492422988189E-011   3.3403133411498699E-010  0.29222855000000003     
 chl2c           7  0.22770740000000000        4.3064391842467263E-002  0.22770740000000000        0.0000000000000000        4.7627216147023706E-020
 chl           7   7.6061406609854989E-011   3.3403133411498699E-010  0.22770740000000000     
 chl2c           8  0.49578364999999996        4.7969800906495587E-002  0.49578364999999996        0.0000000000000000        5.0607038768163582E-020
 chl           8   1.6560727404189776E-010   3.3403133411498699E-010  0.49578364999999996     
 chl2c           9  0.28700202499999999        2.4803669054600401E-002  0.28700202499999999        0.0000000000000000        5.4184050310848200E-016
 chl           9   9.5867669304452852E-011   3.3403133411498699E-010  0.28700202499999999     
 chl2c          10  0.39094662499999999        2.5387016219684602E-002  0.39094662499999999        0.0000000000000000        5.4184836683645627E-016
 chl          10   1.3058842271650151E-010   3.3403133411498699E-010  0.39094662499999999     
 chl2c          11  0.49737575000000001        2.1820572217820047E-002  0.49737575000000001        0.0000000000000000        4.5798986733985397E-006
 chl          11   1.6613908532894224E-010   3.3403133411498699E-010  0.49737575000000001     
 chl2c          12  0.30768942500000002        4.5290941298723353E-002  0.30768942500000002        0.0000000000000000        1.9118651362172269E-010
 chl          12   1.0277790912582324E-010   3.3403133411498699E-010  0.30768942500000002     
 chl2c          13  0.75666275000000005        3.7935816987997487E-002  0.75666275000000005        0.0000000000000000        6.6762243477062502E-006
 chl          13   2.5274907538229615E-010   3.3403134405955115E-010  0.75666275000000005     
 chl2c          14  0.39804095000000000        4.6856526101924839E-002  0.39804095000000000        0.0000000000000000        1.2769396238694776E-009
 chl          14   1.3295814956089684E-010   3.3403133411498699E-010  0.39804095000000000     
 chl2c          15  0.25607262500000000        2.0954299823745293E-002  0.25607262500000000        0.0000000000000000        5.4323432242357335E-016
 chl          15   8.5536280559076765E-011   3.3403133411498699E-010  0.25607262500000000     
 chl2c          16  0.71433214999999994        3.7823443882273475E-002  0.71433214999999994        0.0000000000000000        4.6387963414512743E-006
 chl          16   2.3860932817137181E-010   3.3403134406224310E-010  0.71433214999999994     
 chl2c          17  0.62580860000000005        3.7542254757581245E-002  0.62580860000000005        0.0000000000000000        8.0532647440922686E-006
 chl          17   2.0903968778371068E-010   3.3403134406224310E-010  0.62580860000000005     
 chl2c          18  0.47925950000000000        2.5694475239060960E-002  0.47925950000000000        0.0000000000000000        2.0206844148887688E-006
 chl          18   1.6008769017228160E-010   3.3403133411498699E-010  0.47925950000000000     
 chl2c          19  0.63367130000000005        3.7570220750293731E-002  0.63367130000000005        0.0000000000000000        9.2840687625641364E-016
 chl          19   2.1166607603266889E-010   3.3403134406224310E-010  0.63367130000000005     
 chl2c          20  0.50678202500000002        3.7020645196759419E-002  0.50678202500000002        0.0000000000000000        7.4097027732674695E-006
 chl          20   1.6928108095597107E-010   3.3403134405955115E-010  0.50678202500000002     
 chl2c          21  0.71973185000000006        3.7838475073783531E-002  0.71973185000000006        0.0000000000000000        9.3329171079299800E-016
 chl          21   2.4041299721796725E-010   3.3403134405955115E-010  0.71973185000000006     
 chl2c          22  0.64616892500000001        3.7613353106285476E-002  0.64616892500000001        0.0000000000000000        9.3808795300714960E-016
 chl          22   2.1584067450900475E-010   3.3403134406224310E-010  0.64616892500000001     
 chl2c          23  0.41564179999999995        3.2286562315070731E-002  0.41564179999999995        0.0000000000000000        6.9673406979180053E-020
 chl          23   1.3883738496795458E-010   3.3403133411498699E-010  0.41564179999999995     
 chl2c          24  0.57597492500000003        3.7348402796863071E-002  0.57597492500000003        0.0000000000000000        6.3264316192674622E-006
 chl          24   1.9239367834234918E-010   3.3403134405955115E-010  0.57597492500000003     
 chl2c          25  0.31406487500000002        4.5426679235459781E-002  0.31406487500000002        0.0000000000000000        5.3067112837542689E-020
 chl          25   1.0490750919490663E-010   3.3403133411498699E-010  0.31406487500000002     
 chl2c          26  0.49427735000000000        4.7955660680174553E-002  0.49427735000000000        0.0000000000000000        4.1330011618767012E-010
 chl          26   1.6510412264332035E-010   3.3403133411498699E-010  0.49427735000000000     
 chl2c          27  0.30964730000000001        4.5333133499525620E-002  0.30964730000000001        0.0000000000000000        4.2146906941842485E-009
 chl          27   1.0343190072410362E-010   3.3403133411498699E-010  0.30964730000000001     
 chl2c          28  0.28776342500000002        3.1209236063453518E-002  0.28776342500000002        0.0000000000000000        4.1661996453952500E-009
 chl          28   9.6122000762248011E-011   3.3403133411498699E-010  0.28776342500000002     
 chl2c          29  0.68676297499999994        3.7743217595736761E-002  0.68676297499999994        0.0000000000000000        9.3416837364130409E-016
 chl          29   2.2940035958958589E-010   3.3403134405955115E-010  0.68676297499999994     
 chl2c          30  0.38930277499999999        2.5380056985171612E-002  0.38930277499999999        0.0000000000000000        4.6645633302079965E-006
 chl          30   1.3003932530791660E-010   3.3403133411498699E-010  0.38930277499999999     
 chl2c          31  0.63559385000000002        3.7576959810037038E-002  0.63559385000000002        0.0000000000000000        9.3635830747557983E-016
 chl          31   2.1230826799148474E-010   3.3403134405955115E-010  0.63559385000000002     
 chl2c          32  0.24722667500000001        2.0893126428578448E-002  0.24722667500000001        0.0000000000000000        5.4365783385760116E-016
 chl          32   8.2581456079062299E-011   3.3403133411498699E-010  0.24722667500000001     
 chl2c          33  0.60343137499999999        3.7458922634011876E-002  0.60343137499999999        0.0000000000000000        9.2987407769599261E-016
 chl          33   2.0156499323895302E-010   3.3403134405955115E-010  0.60343137499999999     
 chl2c          34  0.38241020000000003        2.5350269098008315E-002  0.38241020000000003        0.0000000000000000        5.3925575857512984E-016
 chl          34   1.2773698928517900E-010   3.3403133411498699E-010  0.38241020000000003     
 chl2c          35  0.49574644999999995        2.5740370148566064E-002  0.49574644999999995        0.0000000000000000        4.1661993498430232E-006
 chl          35   1.6559484807626866E-010   3.3403133411498699E-010  0.49574644999999995     
 chl2c          36  0.69587337500000002        3.7770393924465726E-002  0.69587337500000002        0.0000000000000000        6.4219318826564655E-006
 chl          36   2.3244351874837933E-010   3.3403134406224310E-010  0.69587337500000002     
 chl2c          37  0.33194060000000003        2.1353674699533250E-002  0.33194060000000003        0.0000000000000000        9.1431500543190230E-007
 chl          37   1.1087856146492926E-010   3.3403133411498699E-010  0.33194060000000003     
 chl2c          38  0.38455722500000000        2.1543295686358745E-002  0.38455722500000000        0.0000000000000000        3.7942079483373898E-006
 chl          38   1.2845416291030722E-010   3.3403133411498699E-010  0.38455722500000000     
 chl2c          39  0.47091117500000002        2.5670077108751441E-002  0.47091117500000002        0.0000000000000000        2.8085482299046619E-006
 chl          39   1.5729908803490612E-010   3.3403133411498699E-010  0.47091117500000002     
 chl2c          40  0.66875547499999999        3.7687445774703773E-002  0.66875547499999999        0.0000000000000000        4.6586142638344498E-006
 chl          40   2.2338529016323380E-010   3.3403134406224310E-010  0.66875547499999999     
 chl2c          41  0.44304987499999998        2.5582381488167241E-002  0.44304987499999998        0.0000000000000000        5.3742518778125831E-016
 chl          41   1.4799254082572820E-010   3.3403133411498699E-010  0.44304987499999998     
 chl2c          42  0.76234377499999995        3.7949995630725070E-002  0.76234377499999995        0.0000000000000000        3.7002503437742181E-006
 chl          42   2.5464671579868201E-010   3.3403134405955115E-010  0.76234377499999995     
 chl2c          43  0.29539925000000000        2.1185090152268007E-002  0.29539925000000000        0.0000000000000000        5.4365991507959307E-016
 chl          43   9.8672605574066568E-011   3.3403133411498699E-010  0.29539925000000000     
 chl2c          44  0.62417262500000004        3.7536352708156646E-002  0.62417262500000004        0.0000000000000000        7.5523657266569861E-006
 chl          44   2.0849322085392821E-010   3.3403134405955115E-010  0.62417262500000004     
 chl2c          45  0.37662252499999999        4.6544927192009838E-002  0.37662252499999999        0.0000000000000000        6.4149779505166931E-020
 chl          45   1.2580372448350503E-010   3.3403133411498699E-010  0.37662252499999999     
 chl2c          46  0.51876034999999998        3.7083195475449568E-002  0.51876034999999998        0.0000000000000000        9.3633138251977568E-016
 chl          46   1.7328221695530317E-010   3.3403134405955115E-010  0.51876034999999998     
 chl2c          47  0.61962282499999999        3.7519784612651236E-002  0.61962282499999999        0.0000000000000000        8.0414597594428968E-006
 chl          47   2.0697344504472605E-010   3.3403134405955115E-010  0.61962282499999999     
 chl2c          48  0.71424949999999998        3.7823212136301673E-002  0.71424949999999998        0.0000000000000000        5.6003190105360165E-006
 chl          48   2.3858172047886238E-010   3.3403134405955115E-010  0.71424949999999998     
 chl2c          49  0.53276120000000005        3.7152990741888416E-002  0.53276120000000005        0.0000000000000000        8.0118025874598434E-006
 chl          49   1.7795893969877934E-010   3.3403134405955115E-010  0.53276120000000005     
 chl2c          50  0.38132569999999999        2.1533072915600981E-002  0.38132569999999999        0.0000000000000000        5.4081514119450143E-016
 chl          50   1.2737473230333128E-010   3.3403133411498699E-010  0.38132569999999999     
 chl2c          51  0.22275920000000002        2.0700971146093840E-002  0.22275920000000002        0.0000000000000000        3.9520872320521680E-006
 chl          51   7.4408552762387215E-011   3.3403133411498699E-010  0.22275920000000002     
 chl2c          52  0.63698869999999996        3.7581825176985564E-002  0.63698869999999996        0.0000000000000000        6.0449878582256042E-006
 chl          52   2.1277419161346095E-010   3.3403134406224310E-010  0.63698869999999996     
 chl2c          53  0.75269794999999995        3.7925801262726190E-002  0.75269794999999995        0.0000000000000000        2.8829634059445848E-006
 chl          53   2.5142470791139505E-010   3.3403134406224310E-010  0.75269794999999995     
 chl2c          54  0.51861124999999997        3.7082433371327092E-002  0.51861124999999997        0.0000000000000000        7.9712419765373931E-006
 chl          54   1.7323241288190389E-010   3.3403134405955115E-010  0.51861124999999997     
 chl2c          55  0.57808280000000001        3.7357235588660491E-002  0.57808280000000001        0.0000000000000000        9.3784989533905366E-016
 chl          55   1.9309777466170869E-010   3.3403134405955115E-010  0.57808280000000001     
 chl2c          56  0.61626080000000005        3.7507394187257688E-002  0.61626080000000005        0.0000000000000000        5.7960079843420567E-006
 chl          56   2.0585042331687321E-010   3.3403134406224310E-010  0.61626080000000005     
 chl2c          57  0.68163462500000005        3.7727617852646313E-002  0.68163462500000005        0.0000000000000000        9.3832720947048117E-016
 chl          57   2.2768732994627815E-010   3.3403134405955115E-010  0.68163462500000005     
 chl2c          58  0.69416802499999997        3.7765358178394853E-002  0.69416802499999997        0.0000000000000000        9.3738618914222473E-016
 chl          58   2.3187387839578276E-010   3.3403134406224310E-010  0.69416802499999997     
 chl2c          59  0.53705127500000005        3.7173699120809672E-002  0.53705127500000005        0.0000000000000000        9.3909779030625732E-016
 chl          59   1.7939195921714563E-010   3.3403134405955115E-010  0.53705127500000005     
 chl2c          60  0.64452155000000000        3.7607757740906807E-002  0.64452155000000000        0.0000000000000000        9.2749715817134538E-016
 chl          60   2.1529039962184519E-010   3.3403134405955115E-010  0.64452155000000000     
 chl2c          61  0.70794139999999994        3.7805373434125003E-002  0.70794139999999994        0.0000000000000000        7.3485683804816300E-006
 chl          61   2.3647461735740032E-010   3.3403134405955115E-010  0.70794139999999994     
 chl2c          62  0.76481592499999995        3.7956103087269030E-002  0.76481592499999995        0.0000000000000000        5.3986046834962957E-006
 chl          62   2.5547249138589885E-010   3.3403134405955115E-010  0.76481592499999995     
 chl2c          63  0.72597904999999996        3.7855601011927406E-002  0.72597904999999996        0.0000000000000000        9.2795547368676059E-016
 chl          63   2.4249975783253038E-010   3.3403134406224310E-010  0.72597904999999996     
 chl2c          64  0.48435739999999999        2.5708982294816416E-002  0.48435739999999999        0.0000000000000000        4.3704491525130437E-006
 chl          64   1.6179054851046639E-010   3.3403133411498699E-010  0.48435739999999999     
 chl2c          65  0.76379975000000000        3.7953597170552002E-002  0.76379975000000000        0.0000000000000000        9.3121321510883678E-016
 chl          65   2.5513305708690528E-010   3.3403134406224310E-010  0.76379975000000000     
 chl2c          66  0.35213202499999996        3.1840477731474713E-002  0.35213202499999996        0.0000000000000000        4.0589265391928664E-010
 chl          66   1.1762313009536194E-010   3.3403133411498699E-010  0.35213202499999996     
 chl2c          67  0.75736760000000003        3.7937587124568600E-002  0.75736760000000003        0.0000000000000000        8.0101929417184302E-006
 chl          67   2.5298451737515653E-010   3.3403134405955115E-010  0.75736760000000003     
 chl2c          68  0.72590779999999999        3.7855407263856986E-002  0.72590779999999999        0.0000000000000000        9.3841762495870255E-016
 chl          68   2.4247595809926594E-010   3.3403134406224310E-010  0.72590779999999999     
 chl2c          69  0.45524217500000003        2.1732330561541505E-002  0.45524217500000003        0.0000000000000000        5.3964157239379875E-016
 chl          69   1.5206515106065839E-010   3.3403133411498699E-010  0.45524217500000003     
 chl2c          70  0.48694062500000002        3.2658010878182209E-002  0.48694062500000002        0.0000000000000000        5.1545394516112454E-009
 chl          70   1.6265342660353559E-010   3.3403133411498699E-010  0.48694062500000002     
 chl2c          71  0.23986107500000001        4.3481058864416305E-002  0.23986107500000001        0.0000000000000000        5.8993689592747565E-020
 chl          71   8.0121114884504953E-011   3.3403133411498699E-010  0.23986107500000001     
 chl2c          72  0.62790522500000001        3.7549776402781669E-002  0.62790522500000001        0.0000000000000000        6.7166800372417355E-006
 chl          72   2.0974002625045516E-010   3.3403134406224310E-010  0.62790522500000001     
 chl2c          73  0.35362212500000001        3.1852614277819484E-002  0.35362212500000001        0.0000000000000000        3.5518721907104739E-010
 chl          73   1.1812087018632670E-010   3.3403133411498699E-010  0.35362212500000001     
 chl2c          74  0.64719590000000005        3.7616827685877569E-002  0.64719590000000005        0.0000000000000000        9.3433072918344949E-016
 chl          74   2.1618371634683088E-010   3.3403134405955115E-010  0.64719590000000005     
 chl2c          75  0.71554212500000003        3.7826830779512356E-002  0.71554212500000003        0.0000000000000000        6.7164061707246095E-006
 chl          75   2.3901349774690359E-010   3.3403134406224310E-010  0.71554212500000003     
 chl2c          76  0.55513977500000000        3.7257729557919804E-002  0.55513977500000000        0.0000000000000000        9.3441755311935615E-016
 chl          76   1.8543408518566123E-010   3.3403134406224310E-010  0.55513977500000000     
 chl2c          77  0.52973029999999999        3.7138172437479272E-002  0.52973029999999999        0.0000000000000000        9.2657656004479289E-016
 chl          77   1.7694652409806924E-010   3.3403134405955115E-010  0.52973029999999999     
 chl2c          78  0.45117492500000000        4.7515248899399322E-002  0.45117492500000000        0.0000000000000000        6.2347934708562189E-019
 chl          78   1.5070656211697919E-010   3.3403133411498699E-010  0.45117492500000000     
 prod   2.3938549983451962E-010   0.0000000000000000        10.000000000000000     
 chl2c           1  0.60826437499999997        3.7477407714772232E-002  0.60826437499999997        0.0000000000000000        9.3244003291002329E-016
 chl           1   3.2060781272546763E-014   5.2708628994664969E-014  0.60826437499999997     
 chl2c           2  0.48302390000000001        3.2640259920490348E-002  0.48302390000000001        0.0000000000000000        1.1330423100283186E-020
 chl           2   1.4521770680707744E-016   3.0064290153567440E-016  0.48302390000000001     
 chl2c           3  0.75128689999999998        3.7922212503796585E-002  0.75128689999999998        0.0000000000000000        7.3792148634355154E-006
 chl           3   3.9599302480651961E-014   5.2708628994664969E-014  0.75128689999999998     
 chl2c           4  0.77318742499999993        3.7976509103863923E-002  0.77318742499999993        0.0000000000000000        9.3244003291002329E-016
 chl           4   4.0753649127665345E-014   5.2708628994664969E-014  0.77318742499999993     
 chl2c           5  0.48489679999999996        2.5710500362372445E-002  0.48489679999999996        0.0000000000000000        5.3956926003003444E-016
 chl           5   1.4578078089736360E-016   3.0064290153567440E-016  0.48489679999999996     
 chl2c           6  0.29222855000000003        3.1261039902252048E-002  0.29222855000000003        0.0000000000000000        1.4196026374691022E-019
 chl           6   8.7856439183562908E-017   3.0064290153567440E-016  0.29222855000000003     
 chl2c           7  0.22770740000000000        4.3064391842467263E-002  0.22770740000000000        0.0000000000000000        1.1056058850858778E-020
 chl           7   6.8458613437144431E-017   3.0064290153567440E-016  0.22770740000000000     
 chl2c           8  0.49578364999999996        4.7969800906495587E-002  0.49578364999999996        0.0000000000000000        1.1747835947537905E-020
 chl           8   1.4905383506994724E-016   3.0064290153567440E-016  0.49578364999999996     
 chl2c           9  0.28700202499999999        2.4803669054600401E-002  0.28700202499999999        0.0000000000000000        5.4184050223385071E-016
 chl           9   8.6285121542614156E-017   3.0064290153567440E-016  0.28700202499999999     
 chl2c          10  0.39094662499999999        2.5387016219684602E-002  0.39094662499999999        0.0000000000000000        5.4184836596255133E-016
 chl          10   1.1753532768557922E-016   3.0064290153567440E-016  0.39094662499999999     
 chl2c          11  0.49737575000000001        2.1820572217820047E-002  0.49737575000000001        0.0000000000000000        4.5421906975962467E-006
 chl          11   1.4953248863348222E-016   3.0064290153567440E-016  0.49737575000000001     
 chl2c          12  0.30768942500000002        4.5290941298723353E-002  0.30768942500000002        0.0000000000000000        3.2256295844241614E-011
 chl          12   9.2504641503843275E-017   3.0064290153567440E-016  0.30768942500000002     
 chl2c          13  0.75666275000000005        3.7935816987997487E-002  0.75666275000000005        0.0000000000000000        6.1927182131407590E-006
 chl          13   3.9882656163724033E-014   5.2708628994521050E-014  0.75666275000000005     
 chl2c          14  0.39804095000000000        4.6856526101924839E-002  0.39804095000000000        0.0000000000000000        3.7587997846426729E-010
 chl          14   1.1966818613801630E-016   3.0064290153567440E-016  0.39804095000000000     
 chl2c          15  0.25607262500000000        2.0954299823745293E-002  0.25607262500000000        0.0000000000000000        5.4323432167802988E-016
 chl          15   7.6986416983856678E-017   3.0064290153567440E-016  0.25607262500000000     
 chl2c          16  0.71433214999999994        3.7823443882273475E-002  0.71433214999999994        0.0000000000000000        3.9126580430159024E-006
 chl          16   3.7651468273311365E-014   5.2708628994664969E-014  0.71433214999999994     
 chl2c          17  0.62580860000000005        3.7542254757581245E-002  0.62580860000000005        0.0000000000000000        7.8712421856180665E-006
 chl          17   3.2985513319070697E-014   5.2708628994664969E-014  0.62580860000000005     
 chl2c          18  0.47925950000000000        2.5694475239060960E-002  0.47925950000000000        0.0000000000000000        2.4706915583380127E-006
 chl          18   1.4408596666853654E-016   3.0064290153567440E-016  0.47925950000000000     
 chl2c          19  0.63367130000000005        3.7570220750293731E-002  0.63367130000000005        0.0000000000000000        9.2840687293444819E-016
 chl          19   3.3399945456267049E-014   5.2708628994664969E-014  0.63367130000000005     
 chl2c          20  0.50678202500000002        3.7020645196759419E-002  0.50678202500000002        0.0000000000000000        7.0600251761850513E-006
 chl          20   2.6711785736817092E-014   5.2708628994521050E-014  0.50678202500000002     
 chl2c          21  0.71973185000000006        3.7838475073783531E-002  0.71973185000000006        0.0000000000000000        9.3329170790543616E-016
 chl          21   3.7936079057190276E-014   5.2708628994521050E-014  0.71973185000000006     
 chl2c          22  0.64616892500000001        3.7613353106285476E-002  0.64616892500000001        0.0000000000000000        9.3244003291002329E-016
 chl          22   3.4058678135706492E-014   5.2708628994664969E-014  0.64616892500000001     
 chl2c          23  0.41564179999999995        3.2286562315070731E-002  0.41564179999999995        0.0000000000000000        1.6174301442380775E-020
 chl          23   1.2495975675151046E-016   3.0064290153567440E-016  0.41564179999999995     
 chl2c          24  0.57597492500000003        3.7348402796863071E-002  0.57597492500000003        0.0000000000000000        6.5729401194463437E-006
 chl          24   3.0358848631972086E-014   5.2708628994521050E-014  0.57597492500000003     
 chl2c          25  0.31406487500000002        4.5426679235459781E-002  0.31406487500000002        0.0000000000000000        1.2318955780123087E-020
 chl          25   9.4421375290438901E-017   3.0064290153567440E-016  0.31406487500000002     
 chl2c          26  0.49427735000000000        4.7955660680174553E-002  0.49427735000000000        0.0000000000000000        9.4251579233098112E-011
 chl          26   1.4860097666736408E-016   3.0064290153567440E-016  0.49427735000000000     
 chl2c          27  0.30964730000000001        4.5333133499525620E-002  0.30964730000000001        0.0000000000000000        9.0481075580845754E-010
 chl          27   9.3093262724687435E-017   3.0064290153567440E-016  0.30964730000000001     
 chl2c          28  0.28776342500000002        3.1209236063453518E-002  0.28776342500000002        0.0000000000000000        8.8845733687018202E-010
 chl          28   8.6514031047843436E-017   3.0064290153567440E-016  0.28776342500000002     
 chl2c          29  0.68676297499999994        3.7743217595736761E-002  0.68676297499999994        0.0000000000000000        9.3416837083220373E-016
 chl          29   3.6198334856448529E-014   5.2708628994521050E-014  0.68676297499999994     
 chl2c          30  0.38930277499999999        2.5380056985171612E-002  0.38930277499999999        0.0000000000000000        4.5882838368000590E-006
 chl          30   1.1704111585188980E-016   3.0064290153567440E-016  0.38930277499999999     
 chl2c          31  0.63559385000000002        3.7576959810037038E-002  0.63559385000000002        0.0000000000000000        9.3635830486314427E-016
 chl          31   3.3501280430849263E-014   5.2708628994521050E-014  0.63559385000000002     
 chl2c          32  0.24722667500000001        2.0893126428578448E-002  0.24722667500000001        0.0000000000000000        5.4365783315141436E-016
 chl          32   7.4326944909017183E-017   3.0064290153567440E-016  0.24722667500000001     
 chl2c          33  0.60343137499999999        3.7458922634011876E-002  0.60343137499999999        0.0000000000000000        9.2987407450400698E-016
 chl          33   3.1806040468528705E-014   5.2708628994521050E-014  0.60343137499999999     
 chl2c          34  0.38241020000000003        2.5350269098008315E-002  0.38241020000000003        0.0000000000000000        5.3925575746289729E-016
 chl          34   1.1496891210483755E-016   3.0064290153567440E-016  0.38241020000000003     
 chl2c          35  0.49574644999999995        2.5740370148566064E-002  0.49574644999999995        0.0000000000000000        4.2585734717059361E-006
 chl          35   1.4904265115401012E-016   3.0064290153567440E-016  0.49574644999999995     
 chl2c          36  0.69587337500000002        3.7770393924465726E-002  0.69587337500000002        0.0000000000000000        6.6561121090080793E-006
 chl          36   3.6678531550140369E-014   5.2708628994664969E-014  0.69587337500000002     
 chl2c          37  0.33194060000000003        2.1353674699533250E-002  0.33194060000000003        0.0000000000000000        1.4073943136917611E-006
 chl          37   9.9795585121492686E-017   3.0064290153567440E-016  0.33194060000000003     
 chl2c          38  0.38455722500000000        2.1543295686358745E-002  0.38455722500000000        0.0000000000000000        3.9852057648920575E-006
 chl          38   1.1561439993050719E-016   3.0064290153567440E-016  0.38455722500000000     
 chl2c          39  0.47091117500000002        2.5670077108751441E-002  0.47091117500000002        0.0000000000000000        3.1703150284151544E-006
 chl          39   1.4157610201757375E-016   3.0064290153567440E-016  0.47091117500000002     
 chl2c          40  0.66875547499999999        3.7687445774703773E-002  0.66875547499999999        0.0000000000000000        3.9334889849564183E-006
 chl          40   3.5249184219925942E-014   5.2708628994664969E-014  0.66875547499999999     
 chl2c          41  0.44304987499999998        2.5582381488167241E-002  0.44304987499999998        0.0000000000000000        5.3742518650215359E-016
 chl          41   1.3319979994501784E-016   3.0064290153567440E-016  0.44304987499999998     
 chl2c          42  0.76234377499999995        3.7949995630725070E-002  0.76234377499999995        0.0000000000000000        2.9652307024984723E-006
 chl          42   4.0182095202757631E-014   5.2708628994521050E-014  0.76234377499999995     
 chl2c          43  0.29539925000000000        2.1185090152268007E-002  0.29539925000000000        0.0000000000000000        5.4365991437360003E-016
 chl          43   8.8809687631462069E-017   3.0064290153567440E-016  0.29539925000000000     
 chl2c          44  0.62417262500000004        3.7536352708156646E-002  0.62417262500000004        0.0000000000000000        7.2537081808032449E-006
 chl          44   3.2899283319661314E-014   5.2708628994521050E-014  0.62417262500000004     
 chl2c          45  0.37662252499999999        4.6544927192009838E-002  0.37662252499999999        0.0000000000000000        1.4891906834115574E-020
 chl          45   1.1322888869969207E-016   3.0064290153567440E-016  0.37662252499999999     
 chl2c          46  0.51876034999999998        3.7083195475449568E-002  0.51876034999999998        0.0000000000000000        9.3633137990491635E-016
 chl          46   2.7343146825217887E-014   5.2708628994521050E-014  0.51876034999999998     
 chl2c          47  0.61962282499999999        3.7519784612651236E-002  0.61962282499999999        0.0000000000000000        7.9081975038116616E-006
 chl          47   3.2659469599462039E-014   5.2708628994521050E-014  0.61962282499999999     
 chl2c          48  0.71424949999999998        3.7823212136301673E-002  0.71424949999999998        0.0000000000000000        4.9764662097320451E-006
 chl          48   3.7647111905022162E-014   5.2708628994521050E-014  0.71424949999999998     
 chl2c          49  0.53276120000000005        3.7152990741888416E-002  0.53276120000000005        0.0000000000000000        7.8790106745855918E-006
 chl          49   2.8081112433475830E-014   5.2708628994521050E-014  0.53276120000000005     
 chl2c          50  0.38132569999999999        2.1533072915600981E-002  0.38132569999999999        0.0000000000000000        5.4081514022533680E-016
 chl          50   1.1464286487812210E-016   3.0064290153567440E-016  0.38132569999999999     
 chl2c          51  0.22275920000000002        2.0700971146093840E-002  0.22275920000000002        0.0000000000000000        4.1079674813957376E-006
 chl          51   6.6970972231765603E-017   3.0064290153567440E-016  0.22275920000000002     
 chl2c          52  0.63698869999999996        3.7581825176985564E-002  0.63698869999999996        0.0000000000000000        5.4305379842919863E-006
 chl          52   3.3574801062093945E-014   5.2708628994664969E-014  0.63698869999999996     
 chl2c          53  0.75269794999999995        3.7925801262726190E-002  0.75269794999999995        0.0000000000000000        2.1323679828941324E-006
 chl          53   3.9673676991594880E-014   5.2708628994664969E-014  0.75269794999999995     
 chl2c          54  0.51861124999999997        3.7082433371327092E-002  0.51861124999999997        0.0000000000000000        7.8390748466058323E-006
 chl          54   2.7335287968634802E-014   5.2708628994521050E-014  0.51861124999999997     
 chl2c          55  0.57808280000000001        3.7357235588660491E-002  0.57808280000000001        0.0000000000000000        9.3784989286111317E-016
 chl          55   3.0469951833313916E-014   5.2708628994521050E-014  0.57808280000000001     
 chl2c          56  0.61626080000000005        3.7507394187257688E-002  0.61626080000000005        0.0000000000000000        6.0948002209519439E-006
 chl          56   3.2482261871155431E-014   5.2708628994664969E-014  0.61626080000000005     
 chl2c          57  0.68163462500000005        3.7727617852646313E-002  0.68163462500000005        0.0000000000000000        9.3832720703567284E-016
 chl          57   3.5928026558944485E-014   5.2708628994521050E-014  0.68163462500000005     
 chl2c          58  0.69416802499999997        3.7765358178394853E-002  0.69416802499999997        0.0000000000000000        9.3244003291002329E-016
 chl          58   3.6588644889684318E-014   5.2708628994664969E-014  0.69416802499999997     
 chl2c          59  0.53705127500000005        3.7173699120809672E-002  0.53705127500000005        0.0000000000000000        9.3909778794117719E-016
 chl          59   2.8307236405009501E-014   5.2708628994521050E-014  0.53705127500000005     
 chl2c          60  0.64452155000000000        3.7607757740906807E-002  0.64452155000000000        0.0000000000000000        9.2749715476900210E-016
 chl          60   3.3971847257923647E-014   5.2708628994521050E-014  0.64452155000000000     
 chl2c          61  0.70794139999999994        3.7805373434125003E-002  0.70794139999999994        0.0000000000000000        7.4132894272260601E-006
 chl          61   3.7314620602461822E-014   5.2708628994521050E-014  0.70794139999999994     
 chl2c          62  0.76481592499999995        3.7956103087269030E-002  0.76481592499999995        0.0000000000000000        4.7656063445483089E-006
 chl          62   4.0312398839926432E-014   5.2708628994521050E-014  0.76481592499999995     
 chl2c          63  0.72597904999999996        3.7855601011927406E-002  0.72597904999999996        0.0000000000000000        9.2795547032489120E-016
 chl          63   3.8265360404349324E-014   5.2708628994664969E-014  0.72597904999999996     
 chl2c          64  0.48435739999999999        2.5708982294816416E-002  0.48435739999999999        0.0000000000000000        4.3942781508062298E-006
 chl          64   1.4561861411627526E-016   3.0064290153567440E-016  0.48435739999999999     
 chl2c          65  0.76379975000000000        3.7953597170552002E-002  0.76379975000000000        0.0000000000000000        9.3121321203585832E-016
 chl          65   4.0258837648967857E-014   5.2708628994664969E-014  0.76379975000000000     
 chl2c          66  0.35213202499999996        3.1840477731474713E-002  0.35213202499999996        0.0000000000000000        9.6385487326375047E-011
 chl          66   1.0586599371963263E-016   3.0064290153567440E-016  0.35213202499999996     
 chl2c          67  0.75736760000000003        3.7937587124568600E-002  0.75736760000000003        0.0000000000000000        7.8774004707157754E-006
 chl          67   3.9919807840870819E-014   5.2708628994521050E-014  0.75736760000000003     
 chl2c          68  0.72590779999999999        3.7855407263856986E-002  0.72590779999999999        0.0000000000000000        9.3244003291002329E-016
 chl          68   3.8261604914533460E-014   5.2708628994664969E-014  0.72590779999999999     
 chl2c          69  0.45524217500000003        2.1732330561541505E-002  0.45524217500000003        0.0000000000000000        5.3964157131688480E-016
 chl          69   1.3686532839341125E-016   3.0064290153567440E-016  0.45524217500000003     
 chl2c          70  0.48694062500000002        3.2658010878182209E-002  0.48694062500000002        0.0000000000000000        1.0990198514514267E-009
 chl          70   1.4639524237559475E-016   3.0064290153567440E-016  0.48694062500000002     
 chl2c          71  0.23986107500000001        4.3481058864416305E-002  0.23986107500000001        0.0000000000000000        1.3694859505738592E-020
 chl          71   7.2112529553466015E-017   3.0064290153567440E-016  0.23986107500000001     
 chl2c          72  0.62790522500000001        3.7549776402781669E-002  0.62790522500000001        0.0000000000000000        6.1896770264946415E-006
 chl          72   3.3096023548336630E-014   5.2708628994664969E-014  0.62790522500000001     
 chl2c          73  0.35362212500000001        3.1852614277819484E-002  0.35362212500000001        0.0000000000000000        9.2346996202092871E-011
 chl          73   1.0631398170721094E-016   3.0064290153567440E-016  0.35362212500000001     
 chl2c          74  0.64719590000000005        3.7616827685877569E-002  0.64719590000000005        0.0000000000000000        9.3433072638889672E-016
 chl          74   3.4112808579875147E-014   5.2708628994521050E-014  0.64719590000000005     
 chl2c          75  0.71554212500000003        3.7826830779512356E-002  0.71554212500000003        0.0000000000000000        6.9012424446735347E-006
 chl          75   3.7715244396679186E-014   5.2708628994664969E-014  0.71554212500000003     
 chl2c          76  0.55513977500000000        3.7257729557919804E-002  0.55513977500000000        0.0000000000000000        9.3244003291002329E-016
 chl          76   2.9260656440656788E-014   5.2708628994664969E-014  0.55513977500000000     
 chl2c          77  0.52973029999999999        3.7138172437479272E-002  0.52973029999999999        0.0000000000000000        9.2657655656127740E-016
 chl          77   2.7921357849856332E-014   5.2708628994521050E-014  0.52973029999999999     
 chl2c          78  0.45117492500000000        4.7515248899399322E-002  0.45117492500000000        0.0000000000000000        1.3612493824646031E-019
 chl          78   1.3564253855214028E-016   3.0064290153567440E-016  0.45117492500000000     
 prod   5.5566643747507380E-011   0.0000000000000000        10.000000000000000     
 chl2c           1  0.60826437499999997        3.7477407714772232E-002  0.60826437499999997        0.0000000000000000        9.3488744272421415E-016
 chl           1   1.7051628402498513E-018   2.8033251828201369E-018  0.60826437499999997     
 chl2c           2  0.48302390000000001        3.2640259920490348E-002  0.48302390000000001        0.0000000000000000        4.1736184371637152E-021
 chl           2   7.2968922950694034E-021   1.5106689948612073E-020  0.48302390000000001     
 chl2c           3  0.75128689999999998        3.7922212503796585E-002  0.75128689999999998        0.0000000000000000        7.4226764011757707E-006
 chl           3   2.1061014862928738E-018   2.8033251828201369E-018  0.75128689999999998     
 chl2c           4  0.77318742499999993        3.7976509103863923E-002  0.77318742499999993        0.0000000000000000        9.3488744272421415E-016
 chl           4   2.1674957795423555E-018   2.8033251828201369E-018  0.77318742499999993     
 chl2c           5  0.48489679999999996        2.5710500362372445E-002  0.48489679999999996        0.0000000000000000        5.3956925982089312E-016
 chl           5   7.3251856146741579E-021   1.5106689948612073E-020  0.48489679999999996     
 chl2c           6  0.29222855000000003        3.1261039902252048E-002  0.29222855000000003        0.0000000000000000        5.5074932260604598E-020
 chl           6   4.4146060989824809E-021   1.5106689948612073E-020  0.29222855000000003     
 chl2c           7  0.22770740000000000        4.3064391842467263E-002  0.22770740000000000        0.0000000000000000        4.0725537029201480E-021
 chl           7   3.4399050908045891E-021   1.5106689948612073E-020  0.22770740000000000     
 chl2c           8  0.49578364999999996        4.7969800906495587E-002  0.49578364999999996        0.0000000000000000        4.3273766327462471E-021
 chl           8   7.4896498821412055E-021   1.5106689948612073E-020  0.49578364999999996     
 chl2c           9  0.28700202499999999        2.4803669054600401E-002  0.28700202499999999        0.0000000000000000        5.4184050206503171E-016
 chl           9   4.3356506062988111E-021   1.5106689948612073E-020  0.28700202499999999     
 chl2c          10  0.39094662499999999        2.5387016219684602E-002  0.39094662499999999        0.0000000000000000        5.4184836579387265E-016
 chl          10   5.9059094503313135E-021   1.5106689948612073E-020  0.39094662499999999     
 chl2c          11  0.49737575000000001        2.1820572217820047E-002  0.49737575000000001        0.0000000000000000        4.4806811217429332E-006
 chl          11   7.5137012432083908E-021   1.5106689948612073E-020  0.49737575000000001     
 chl2c          12  0.30768942500000002        4.5290941298723353E-002  0.30768942500000002        0.0000000000000000        6.9976527500268686E-012
 chl          12   4.6481687439417288E-021   1.5106689948612073E-020  0.30768942500000002     
 chl2c          13  0.75666275000000005        3.7935816987997487E-002  0.75666275000000005        0.0000000000000000        5.6025632525844769E-006
 chl          13   2.1211717419749772E-018   2.8033251828175457E-018  0.75666275000000005     
 chl2c          14  0.39804095000000000        4.6856526101924839E-002  0.39804095000000000        0.0000000000000000        1.8419454866391646E-010
 chl          14   6.0130812185010007E-021   1.5106689948612073E-020  0.39804095000000000     
 chl2c          15  0.25607262500000000        2.0954299823745293E-002  0.25607262500000000        0.0000000000000000        5.4323432153412715E-016
 chl          15   3.8684097502022088E-021   1.5106689948612073E-020  0.25607262500000000     
 chl2c          16  0.71433214999999994        3.7823443882273475E-002  0.71433214999999994        0.0000000000000000        3.1287639596006419E-006
 chl          16   2.0025053049930515E-018   2.8033251828201369E-018  0.71433214999999994     
 chl2c          17  0.62580860000000005        3.7542254757581245E-002  0.62580860000000005        0.0000000000000000        7.7471906161303312E-006
 chl          17   1.7543450080054140E-018   2.8033251828201369E-018  0.62580860000000005     
 chl2c          18  0.47925950000000000        2.5694475239060960E-002  0.47925950000000000        0.0000000000000000        2.9037286839187608E-006
 chl          18   7.2400246714268486E-021   1.5106689948612073E-020  0.47925950000000000     
 chl2c          19  0.63367130000000005        3.7570220750293731E-002  0.63367130000000005        0.0000000000000000        9.2840687229325159E-016
 chl          19   1.7763867129203739E-018   2.8033251828201369E-018  0.63367130000000005     
 chl2c          20  0.50678202500000002        3.7020645196759419E-002  0.50678202500000002        0.0000000000000000        6.6221281795953646E-006
 chl          20   1.4206748128817711E-018   2.8033251828175457E-018  0.50678202500000002     
 chl2c          21  0.71973185000000006        3.7838475073783531E-002  0.71973185000000006        0.0000000000000000        9.3329170734808700E-016
 chl          21   2.0176424199808606E-018   2.8033251828175457E-018  0.71973185000000006     
 chl2c          22  0.64616892500000001        3.7613353106285476E-002  0.64616892500000001        0.0000000000000000        9.3488744272421415E-016
 chl          22   1.8114216198083164E-018   2.8033251828201369E-018  0.64616892500000001     
 chl2c          23  0.41564179999999995        3.2286562315070731E-002  0.41564179999999995        0.0000000000000000        5.9579185055104389E-021
 chl          23   6.2789718022830292E-021   1.5106689948612073E-020  0.41564179999999995     
 chl2c          24  0.57597492500000003        3.7348402796863071E-002  0.57597492500000003        0.0000000000000000        6.7715547819859327E-006
 chl          24   1.6146450119239473E-018   2.8033251828175457E-018  0.57597492500000003     
 chl2c          25  0.31406487500000002        4.5426679235459781E-002  0.31406487500000002        0.0000000000000000        4.5377545714837592E-021
 chl          25   4.7444806903746079E-021   1.5106689948612073E-020  0.31406487500000002     
 chl2c          26  0.49427735000000000        4.7955660680174553E-002  0.49427735000000000        0.0000000000000000        3.3971626987421319E-011
 chl          26   7.4668946750716124E-021   1.5106689948612073E-020  0.49427735000000000     
 chl2c          27  0.30964730000000001        4.5333133499525620E-002  0.30964730000000001        0.0000000000000000        3.4454214707876570E-010
 chl          27   4.6777457545248677E-021   1.5106689948612073E-020  0.30964730000000001     
 chl2c          28  0.28776342500000002        3.1209236063453518E-002  0.28776342500000002        0.0000000000000000        3.3390054532369279E-010
 chl          28   4.3471528400256848E-021   1.5106689948612073E-020  0.28776342500000002     
 chl2c          29  0.68676297499999994        3.7743217595736761E-002  0.68676297499999994        0.0000000000000000        9.3416837028999893E-016
 chl          29   1.9252199424441963E-018   2.8033251828175457E-018  0.68676297499999994     
 chl2c          30  0.38930277499999999        2.5380056985171612E-002  0.38930277499999999        0.0000000000000000        4.5039813047924996E-006
 chl          30   5.8810763180592874E-021   1.5106689948612073E-020  0.38930277499999999     
 chl2c          31  0.63559385000000002        3.7576959810037038E-002  0.63559385000000002        0.0000000000000000        9.3635830435889925E-016
 chl          31   1.7817762457489577E-018   2.8033251828175457E-018  0.63559385000000002     
 chl2c          32  0.24722667500000001        2.0893126428578448E-002  0.24722667500000001        0.0000000000000000        5.4365783301510826E-016
 chl          32   3.7347767262512835E-021   1.5106689948612073E-020  0.24722667500000001     
 chl2c          33  0.60343137499999999        3.7458922634011876E-002  0.60343137499999999        0.0000000000000000        9.2987407388789872E-016
 chl          33   1.6916143696397179E-018   2.8033251828175457E-018  0.60343137499999999     
 chl2c          34  0.38241020000000003        2.5350269098008315E-002  0.38241020000000003        0.0000000000000000        5.3925575724821738E-016
 chl          34   5.7769523245867331E-021   1.5106689948612073E-020  0.38241020000000003     
 chl2c          35  0.49574644999999995        2.5740370148566064E-002  0.49574644999999995        0.0000000000000000        4.3044650305546190E-006
 chl          35   7.4890879132751173E-021   1.5106689948612073E-020  0.49574644999999995     
 chl2c          36  0.69587337500000002        3.7770393924465726E-002  0.69587337500000002        0.0000000000000000        6.8419535523798908E-006
 chl          36   1.9507593561915408E-018   2.8033251828201369E-018  0.69587337500000002     
 chl2c          37  0.33194060000000003        2.1353674699533250E-002  0.33194060000000003        0.0000000000000000        1.9317691761526128E-006
 chl          37   5.0145237255562615E-021   1.5106689948612073E-020  0.33194060000000003     
 chl2c          38  0.38455722500000000        2.1543295686358745E-002  0.38455722500000000        0.0000000000000000        4.1233754078496363E-006
 chl          38   5.8093867655736517E-021   1.5106689948612073E-020  0.38455722500000000     
 chl2c          39  0.47091117500000002        2.5670077108751441E-002  0.47091117500000002        0.0000000000000000        3.4904054954890978E-006
 chl          39   7.1139091140616007E-021   1.5106689948612073E-020  0.47091117500000002     
 chl2c          40  0.66875547499999999        3.7687445774703773E-002  0.66875547499999999        0.0000000000000000        3.1504363236421794E-006
 chl          40   1.8747390642163426E-018   2.8033251828201369E-018  0.66875547499999999     
 chl2c          41  0.44304987499999998        2.5582381488167241E-002  0.44304987499999998        0.0000000000000000        5.3742518625526438E-016
 chl          41   6.6930170933963354E-021   1.5106689948612073E-020  0.44304987499999998     
 chl2c          42  0.76234377499999995        3.7949995630725070E-002  0.76234377499999995        0.0000000000000000        2.1542161293870589E-006
 chl          42   2.1370975024216929E-018   2.8033251828175457E-018  0.76234377499999995     
 chl2c          43  0.29539925000000000        2.1185090152268007E-002  0.29539925000000000        0.0000000000000000        5.4365991423733111E-016
 chl          43   4.4625048808025452E-021   1.5106689948612073E-020  0.29539925000000000     
 chl2c          44  0.62417262500000004        3.7536352708156646E-002  0.62417262500000004        0.0000000000000000        6.8777258853888508E-006
 chl          44   1.7497588380878323E-018   2.8033251828175457E-018  0.62417262500000004     
 chl2c          45  0.37662252499999999        4.6544927192009838E-002  0.37662252499999999        0.0000000000000000        5.4855313055506278E-021
 chl          45   5.6895197128383989E-021   1.5106689948612073E-020  0.37662252499999999     
 chl2c          46  0.51876034999999998        3.7083195475449568E-002  0.51876034999999998        0.0000000000000000        9.3633137940020353E-016
 chl          46   1.4542539530022439E-018   2.8033251828175457E-018  0.51876034999999998     
 chl2c          47  0.61962282499999999        3.7519784612651236E-002  0.61962282499999999        0.0000000000000000        7.7626467437823737E-006
 chl          47   1.7370042691710490E-018   2.8033251828175457E-018  0.61962282499999999     
 chl2c          48  0.71424949999999998        3.7823212136301673E-002  0.71424949999999998        0.0000000000000000        4.2438341123282913E-006
 chl          48   2.0022736101648406E-018   2.8033251828175457E-018  0.71424949999999998     
 chl2c          49  0.53276120000000005        3.7152990741888416E-002  0.53276120000000005        0.0000000000000000        7.7337115368366514E-006
 chl          49   1.4935028883880952E-018   2.8033251828175457E-018  0.53276120000000005     
 chl2c          50  0.38132569999999999        2.1533072915600981E-002  0.38132569999999999        0.0000000000000000        5.4081514003827136E-016
 chl          50   5.7605691193374624E-021   1.5106689948612073E-020  0.38132569999999999     
 chl2c          51  0.22275920000000002        2.0700971146093840E-002  0.22275920000000002        0.0000000000000000        4.2122282201760723E-006
 chl          51   3.3651541676008668E-021   1.5106689948612073E-020  0.22275920000000002     
 chl2c          52  0.63698869999999996        3.7581825176985564E-002  0.63698869999999996        0.0000000000000000        4.7566887910263235E-006
 chl          52   1.7856864638818610E-018   2.8033251828201369E-018  0.63698869999999996     
 chl2c          53  0.75269794999999995        3.7925801262726190E-002  0.75269794999999995        0.0000000000000000        1.3397588173701541E-006
 chl          53   2.1100571182920919E-018   2.8033251828201369E-018  0.75269794999999995     
 chl2c          54  0.51861124999999997        3.7082433371327092E-002  0.51861124999999997        0.0000000000000000        7.6941283993284819E-006
 chl          54   1.4538359772174858E-018   2.8033251828175457E-018  0.51861124999999997     
 chl2c          55  0.57808280000000001        3.7357235588660491E-002  0.57808280000000001        0.0000000000000000        9.3784989238282799E-016
 chl          55   1.6205540709936787E-018   2.8033251828175457E-018  0.57808280000000001     
 chl2c          56  0.61626080000000005        3.7507394187257688E-002  0.61626080000000005        0.0000000000000000        6.4037976874563383E-006
 chl          56   1.7275794198248839E-018   2.8033251828201369E-018  0.61626080000000005     
 chl2c          57  0.68163462500000005        3.7727617852646313E-002  0.68163462500000005        0.0000000000000000        9.3832720656571290E-016
 chl          57   1.9108435097428942E-018   2.8033251828175457E-018  0.68163462500000005     
 chl2c          58  0.69416802499999997        3.7765358178394853E-002  0.69416802499999997        0.0000000000000000        9.3488744272421415E-016
 chl          58   1.9459787055910182E-018   2.8033251828201369E-018  0.69416802499999997     
 chl2c          59  0.53705127500000005        3.7173699120809672E-002  0.53705127500000005        0.0000000000000000        9.3909778748467580E-016
 chl          59   1.5055293636717711E-018   2.8033251828175457E-018  0.53705127500000005     
 chl2c          60  0.64452155000000000        3.7607757740906807E-002  0.64452155000000000        0.0000000000000000        9.2749715411229138E-016
 chl          60   1.8068034919835979E-018   2.8033251828175457E-018  0.64452155000000000     
 chl2c          61  0.70794139999999994        3.7805373434125003E-002  0.70794139999999994        0.0000000000000000        7.4329341119362291E-006
 chl          61   1.9845899545791090E-018   2.8033251828175457E-018  0.70794139999999994     
 chl2c          62  0.76481592499999995        3.7956103087269030E-002  0.76481592499999995        0.0000000000000000        4.0260961342651645E-006
 chl          62   2.1440277427723954E-018   2.8033251828175457E-018  0.76481592499999995     
 chl2c          63  0.72597904999999996        3.7855601011927406E-002  0.72597904999999996        0.0000000000000000        9.2795546967599237E-016
 chl          63   2.0351553530648391E-018   2.8033251828201369E-018  0.72597904999999996     
 chl2c          64  0.48435739999999999        2.5708982294816416E-002  0.48435739999999999        0.0000000000000000        4.3810855451229839E-006
 chl          64   7.3170370661158769E-021   1.5106689948612073E-020  0.48435739999999999     
 chl2c          65  0.76379975000000000        3.7953597170552002E-002  0.76379975000000000        0.0000000000000000        9.3121321144272031E-016
 chl          65   2.1411790738067250E-018   2.8033251828201369E-018  0.76379975000000000     
 chl2c          66  0.35213202499999996        3.1840477731474713E-002  0.35213202499999996        0.0000000000000000        3.5909719551338020E-011
 chl          66   5.3195493226519144E-021   1.5106689948612073E-020  0.35213202499999996     
 chl2c          67  0.75736760000000003        3.7937587124568600E-002  0.75736760000000003        0.0000000000000000        7.7318832717188959E-006
 chl          67   2.1231476657300860E-018   2.8033251828175457E-018  0.75736760000000003     
 chl2c          68  0.72590779999999999        3.7855407263856986E-002  0.72590779999999999        0.0000000000000000        9.3488744272421415E-016
 chl          68   2.0349556161455635E-018   2.8033251828201369E-018  0.72590779999999999     
 chl2c          69  0.45524217500000003        2.1732330561541505E-002  0.45524217500000003        0.0000000000000000        5.3964157110902172E-016
 chl          69   6.8772023892567992E-021   1.5106689948612073E-020  0.45524217500000003     
 chl2c          70  0.48694062500000002        3.2658010878182209E-002  0.48694062500000002        0.0000000000000000        4.1282683578779025E-010
 chl          70   7.3560610452583817E-021   1.5106689948612073E-020  0.48694062500000002     
 chl2c          71  0.23986107500000001        4.3481058864416305E-002  0.23986107500000001        0.0000000000000000        5.0445841702763383E-021
 chl          71   3.6235068907657869E-021   1.5106689948612073E-020  0.23986107500000001     
 chl2c          72  0.62790522500000001        3.7549776402781669E-002  0.62790522500000001        0.0000000000000000        5.6134302480363851E-006
 chl          72   1.7602225296668441E-018   2.8033251828201369E-018  0.62790522500000001     
 chl2c          73  0.35362212500000001        3.1852614277819484E-002  0.35362212500000001        0.0000000000000000        3.7202019549705468E-011
 chl          73   5.3420598013443423E-021   1.5106689948612073E-020  0.35362212500000001     
 chl2c          74  0.64719590000000005        3.7616827685877569E-002  0.64719590000000005        0.0000000000000000        9.3433072584949986E-016
 chl          74   1.8143005646862662E-018   2.8033251828175457E-018  0.64719590000000005     
 chl2c          75  0.71554212500000003        3.7826830779512356E-002  0.71554212500000003        0.0000000000000000        7.0372323157199820E-006
 chl          75   2.0058972583811345E-018   2.8033251828201369E-018  0.71554212500000003     
 chl2c          76  0.55513977500000000        3.7257729557919804E-002  0.55513977500000000        0.0000000000000000        9.3441754979469042E-016
 chl          76   1.5562373112426047E-018   2.8033251828201369E-018  0.55513977500000000     
 chl2c          77  0.52973029999999999        3.7138172437479272E-002  0.52973029999999999        0.0000000000000000        9.2657655588889891E-016
 chl          77   1.4850062900914934E-018   2.8033251828175457E-018  0.52973029999999999     
 chl2c          78  0.45117492500000000        4.7515248899399322E-002  0.45117492500000000        0.0000000000000000        5.2810786040755135E-020
 chl          78   6.8157597045633063E-021   1.5106689948612073E-020  0.45117492500000000     
 prod   2.0467987407580939E-011   0.0000000000000000        10.000000000000000     
 chl2c           1  0.60826437499999997        3.7477407714772232E-002  0.60826437499999997        0.0000000000000000        9.3573033264842917E-016
 chl           1   9.1104243004469082E-021   1.4977737764844289E-020  0.60826437499999997     
 chl2c           2  0.48302390000000001        3.2640259920490348E-002  0.48302390000000001        0.0000000000000000        1.7866580317060052E-021
 chl           2   7.2152114615458547E-021   1.4937586859668548E-020  0.48302390000000001     
 chl2c           3  0.75128689999999998        3.7922212503796585E-002  0.75128689999999998        0.0000000000000000        7.4349762861234446E-006
 chl           3   1.1252578174362795E-020   1.4977737764844289E-020  0.75128689999999998     
 chl2c           4  0.77318742499999993        3.7976509103863923E-002  0.77318742499999993        0.0000000000000000        9.3870557761868455E-016
 chl           4   1.1580598494725210E-020   1.4977737764844289E-020  0.77318742499999993     
 chl2c           5  0.48489679999999996        2.5710500362372445E-002  0.48489679999999996        0.0000000000000000        5.3956925975110891E-016
 chl           5   7.2431880679753278E-021   1.4937586859668548E-020  0.48489679999999996     
 chl2c           6  0.29222855000000003        3.1261039902252048E-002  0.29222855000000003        0.0000000000000000        2.6166602622588537E-020
 chl           6   4.3651893484999935E-021   1.4937586859668548E-020  0.29222855000000003     
 chl2c           7  0.22770740000000000        4.3064391842467263E-002  0.22770740000000000        0.0000000000000000        1.7433936832830169E-021
 chl           7   3.4013990660892903E-021   1.4937586859668548E-020  0.22770740000000000     
 chl2c           8  0.49578364999999996        4.7969800906495587E-002  0.49578364999999996        0.0000000000000000        1.8524797048682877E-021
 chl           8   7.4058113354785107E-021   1.4937586859668548E-020  0.49578364999999996     
 chl2c           9  0.28700202499999999        2.4803669054600401E-002  0.28700202499999999        0.0000000000000000        5.4184050200870182E-016
 chl           9   4.2871176773382638E-021   1.4937586859668548E-020  0.28700202499999999     
 chl2c          10  0.39094662499999999        2.5387016219684602E-002  0.39094662499999999        0.0000000000000000        5.4184836573758960E-016
 chl          10   5.8397991684317677E-021   1.4937586859668548E-020  0.39094662499999999     
 chl2c          11  0.49737575000000001        2.1820572217820047E-002  0.49737575000000001        0.0000000000000000        4.4271447599723868E-006
 chl          11   7.4295934675177889E-021   1.4937586859668548E-020  0.49737575000000001     
 chl2c          12  0.30768942500000002        4.5290941298723353E-002  0.30768942500000002        0.0000000000000000        1.5271692219005076E-012
 chl          12   4.5961375117389712E-021   1.4937586859668548E-020  0.30768942500000002     
 chl2c          13  0.75666275000000005        3.7935816987997487E-002  0.75666275000000005        0.0000000000000000        5.1320892176099591E-006
 chl          13   1.1333096245925935E-020   1.4977737764844289E-020  0.75666275000000005     
 chl2c          14  0.39804095000000000        4.6856526101924839E-002  0.39804095000000000        0.0000000000000000        9.9453562438885920E-011
 chl          14   5.9457712643299856E-021   1.4937586859668548E-020  0.39804095000000000     
 chl2c          15  0.25607262500000000        2.0954299823745293E-002  0.25607262500000000        0.0000000000000000        5.4323432148611116E-016
 chl          15   3.8251070783208314E-021   1.4937586859668548E-020  0.25607262500000000     
 chl2c          16  0.71433214999999994        3.7823443882273475E-002  0.71433214999999994        0.0000000000000000        2.5490210812516118E-006
 chl          16   1.0699079619697414E-020   1.4977737764844289E-020  0.71433214999999994     
 chl2c          17  0.62580860000000005        3.7542254757581245E-002  0.62580860000000005        0.0000000000000000        7.6726697318571972E-006
 chl          17   9.3731971017843352E-021   1.4977737764844289E-020  0.62580860000000005     
 chl2c          18  0.47925950000000000        2.5694475239060960E-002  0.47925950000000000        0.0000000000000000        3.1724809280994539E-006
 chl          18   7.1589804095713186E-021   1.4937586859668548E-020  0.47925950000000000     
 chl2c          19  0.63367130000000005        3.7570220750293731E-002  0.63367130000000005        0.0000000000000000        9.2840687207930364E-016
 chl          19   9.4909625605079758E-021   1.4977737764844289E-020  0.63367130000000005     
 chl2c          20  0.50678202500000002        3.7020645196759419E-002  0.50678202500000002        0.0000000000000000        6.2630389083627301E-006
 chl          20   7.5904482743867629E-021   1.4977737764844289E-020  0.50678202500000002     
 chl2c          21  0.71973185000000006        3.7838475073783531E-002  0.71973185000000006        0.0000000000000000        9.3329170716211620E-016
 chl          21   1.0779954910306246E-020   1.4977737764844289E-020  0.71973185000000006     
 chl2c          22  0.64616892500000001        3.7613353106285476E-002  0.64616892500000001        0.0000000000000000        9.3808794991837696E-016
 chl          22   9.6781487104413366E-021   1.4977737764844289E-020  0.64616892500000001     
 chl2c          23  0.41564179999999995        3.2286562315070731E-002  0.41564179999999995        0.0000000000000000        2.5504925329872487E-021
 chl          23   6.2086854900089824E-021   1.4937586859668548E-020  0.41564179999999995     
 chl2c          24  0.57597492500000003        3.7348402796863071E-002  0.57597492500000003        0.0000000000000000        6.8725299240401684E-006
 chl          24   8.6268013857758576E-021   1.4977737764844289E-020  0.57597492500000003     
 chl2c          25  0.31406487500000002        4.5426679235459781E-002  0.31406487500000002        0.0000000000000000        1.9425395101624601E-021
 chl          25   4.6913713498834458E-021   1.4937586859668548E-020  0.31406487500000002     
 chl2c          26  0.49427735000000000        4.7955660680174553E-002  0.49427735000000000        0.0000000000000000        1.4278241641060986E-011
 chl          26   7.3833108483917916E-021   1.4937586859668548E-020  0.49427735000000000     
 chl2c          27  0.30964730000000001        4.5333133499525620E-002  0.30964730000000001        0.0000000000000000        1.6140889799673404E-010
 chl          27   4.6253834396118449E-021   1.4937586859668548E-020  0.30964730000000001     
 chl2c          28  0.28776342500000002        3.1209236063453518E-002  0.28776342500000002        0.0000000000000000        1.5410687434755580E-010
 chl          28   4.2984911559732159E-021   1.4937586859668548E-020  0.28776342500000002     
 chl2c          29  0.68676297499999994        3.7743217595736761E-002  0.68676297499999994        0.0000000000000000        9.3416837010908137E-016
 chl          29   1.0286155746154313E-020   1.4977737764844289E-020  0.68676297499999994     
 chl2c          30  0.38930277499999999        2.5380056985171612E-002  0.38930277499999999        0.0000000000000000        4.4424726517993546E-006
 chl          30   5.8152440162725016E-021   1.4937586859668548E-020  0.38930277499999999     
 chl2c          31  0.63559385000000002        3.7576959810037038E-002  0.63559385000000002        0.0000000000000000        9.3635830419064784E-016
 chl          31   9.5197580102477761E-021   1.4977737764844289E-020  0.63559385000000002     
 chl2c          32  0.24722667500000001        2.0893126428578448E-002  0.24722667500000001        0.0000000000000000        5.4365783296962698E-016
 chl          32   3.6929699318395467E-021   1.4937586859668548E-020  0.24722667500000001     
 chl2c          33  0.60343137499999999        3.7458922634011876E-002  0.60343137499999999        0.0000000000000000        9.2987407368232196E-016
 chl          33   9.0380368938294167E-021   1.4977737764844289E-020  0.60343137499999999     
 chl2c          34  0.38241020000000003        2.5350269098008315E-002  0.38241020000000003        0.0000000000000000        5.3925575717658506E-016
 chl          34   5.7122855785232220E-021   1.4937586859668548E-020  0.38241020000000003     
 chl2c          35  0.49574644999999995        2.5740370148566064E-002  0.49574644999999995        0.0000000000000000        4.3081132944736410E-006
 chl          35   7.4052556572473297E-021   1.4937586859668548E-020  0.49574644999999995     
 chl2c          36  0.69587337500000002        3.7770393924465726E-002  0.69587337500000002        0.0000000000000000        6.9342948639672358E-006
 chl          36   1.0422608928287153E-020   1.4977737764844289E-020  0.69587337500000002     
 chl2c          37  0.33194060000000003        2.1353674699533250E-002  0.33194060000000003        0.0000000000000000        2.2891420594081907E-006
 chl          37   4.9583915447504939E-021   1.4937586859668548E-020  0.33194060000000003     
 chl2c          38  0.38455722500000000        2.1543295686358745E-002  0.38455722500000000        0.0000000000000000        4.1827540467987872E-006
 chl          38   5.7443569509506013E-021   1.4937586859668548E-020  0.38455722500000000     
 chl2c          39  0.47091117500000002        2.5670077108751441E-002  0.47091117500000002        0.0000000000000000        3.6724747205593604E-006
 chl          39   7.0342765797510762E-021   1.4937586859668548E-020  0.47091117500000002     
 chl2c          40  0.66875547499999999        3.7687445774703773E-002  0.66875547499999999        0.0000000000000000        2.5709951988906553E-006
 chl          40   1.0016444133353881E-020   1.4977737764844289E-020  0.66875547499999999     
 chl2c          41  0.44304987499999998        2.5582381488167241E-002  0.44304987499999998        0.0000000000000000        5.3742518617288482E-016
 chl          41   6.6180959909777926E-021   1.4937586859668548E-020  0.44304987499999998     
 chl2c          42  0.76234377499999995        3.7949995630725070E-002  0.76234377499999995        0.0000000000000000        1.5690208576180478E-006
 chl          42   1.1418185148611456E-020   1.4977737764844289E-020  0.76234377499999995     
 chl2c          43  0.29539925000000000        2.1185090152268007E-002  0.29539925000000000        0.0000000000000000        5.4365991419186235E-016
 chl          43   4.4125519551559444E-021   1.4937586859668548E-020  0.29539925000000000     
 chl2c          44  0.62417262500000004        3.7536352708156646E-002  0.62417262500000004        0.0000000000000000        6.5670371023165956E-006
 chl          44   9.3486938972444932E-021   1.4977737764844289E-020  0.62417262500000004     
 chl2c          45  0.37662252499999999        4.6544927192009838E-002  0.37662252499999999        0.0000000000000000        2.3482697460753761E-021
 chl          45   5.6258316804951888E-021   1.4937586859668548E-020  0.37662252499999999     
 chl2c          46  0.51876034999999998        3.7083195475449568E-002  0.51876034999999998        0.0000000000000000        9.3633137923179593E-016
 chl          46   7.7698564850988414E-021   1.4977737764844289E-020  0.51876034999999998     
 chl2c          47  0.61962282499999999        3.7519784612651236E-002  0.61962282499999999        0.0000000000000000        7.6560712849405469E-006
 chl          47   9.2805481859620045E-021   1.4977737764844289E-020  0.61962282499999999     
 chl2c          48  0.71424949999999998        3.7823212136301673E-002  0.71424949999999998        0.0000000000000000        3.6819405008505606E-006
 chl          48   1.0697841709671151E-020   1.4977737764844289E-020  0.71424949999999998     
 chl2c          49  0.53276120000000005        3.7152990741888416E-002  0.53276120000000005        0.0000000000000000        7.6268573924732790E-006
 chl          49   7.9795575448837614E-021   1.4977737764844289E-020  0.53276120000000005     
 chl2c          50  0.38132569999999999        2.1533072915600981E-002  0.38132569999999999        0.0000000000000000        5.4081513997585313E-016
 chl          50   5.6960857655739111E-021   1.4937586859668548E-020  0.38132569999999999     
 chl2c          51  0.22275920000000002        2.0700971146093840E-002  0.22275920000000002        0.0000000000000000        4.2505368776008886E-006
 chl          51   3.3274848987902785E-021   1.4937586859668548E-020  0.22275920000000002     
 chl2c          52  0.63698869999999996        3.7581825176985564E-002  0.63698869999999996        0.0000000000000000        4.2378235743612067E-006
 chl          52   9.5406497077690683E-021   1.4977737764844289E-020  0.63698869999999996     
 chl2c          53  0.75269794999999995        3.7925801262726190E-002  0.75269794999999995        0.0000000000000000        7.7947185501859342E-007
 chl          53   1.1273712511235877E-020   1.4977737764844289E-020  0.75269794999999995     
 chl2c          54  0.51861124999999997        3.7082433371327092E-002  0.51861124999999997        0.0000000000000000        7.5871097308743837E-006
 chl          54   7.7676233043981030E-021   1.4977737764844289E-020  0.51861124999999997     
 chl2c          55  0.57808280000000001        3.7357235588660491E-002  0.57808280000000001        0.0000000000000000        9.3784989222323847E-016
 chl          55   8.6583725847669285E-021   1.4977737764844289E-020  0.57808280000000001     
 chl2c          56  0.61626080000000005        3.7507394187257688E-002  0.61626080000000005        0.0000000000000000        6.5954218493658051E-006
 chl          56   9.2301926571531540E-021   1.4977737764844289E-020  0.61626080000000005     
 chl2c          57  0.68163462500000005        3.7727617852646313E-002  0.68163462500000005        0.0000000000000000        9.3832720640890155E-016
 chl          57   1.0209344664687976E-020   1.4977737764844289E-020  0.68163462500000005     
 chl2c          58  0.69416802499999997        3.7765358178394853E-002  0.69416802499999997        0.0000000000000000        9.3738618597377496E-016
 chl          58   1.0397066643189875E-020   1.4977737764844289E-020  0.69416802499999997     
 chl2c          59  0.53705127500000005        3.7173699120809672E-002  0.53705127500000005        0.0000000000000000        9.3909778733235524E-016
 chl          59   8.0438131632252760E-021   1.4977737764844289E-020  0.53705127500000005     
 chl2c          60  0.64452155000000000        3.7607757740906807E-002  0.64452155000000000        0.0000000000000000        9.2749715389316652E-016
 chl          60   9.6534747596909772E-021   1.4977737764844289E-020  0.64452155000000000     
 chl2c          61  0.70794139999999994        3.7805373434125003E-002  0.70794139999999994        0.0000000000000000        7.4181885415244923E-006
 chl          61   1.0603360642076736E-020   1.4977737764844289E-020  0.70794139999999994     
 chl2c          62  0.76481592499999995        3.7956103087269030E-002  0.76481592499999995        0.0000000000000000        3.4618305211744190E-006
 chl          62   1.1455212363026817E-020   1.4977737764844289E-020  0.76481592499999995     
 chl2c          63  0.72597904999999996        3.7855601011927406E-002  0.72597904999999996        0.0000000000000000        9.2795546945947431E-016
 chl          63   1.0873523833670780E-020   1.4977737764844289E-020  0.72597904999999996     
 chl2c          64  0.48435739999999999        2.5708982294816416E-002  0.48435739999999999        0.0000000000000000        4.3518178358117295E-006
 chl          64   7.2351307336232224E-021   1.4937586859668548E-020  0.48435739999999999     
 chl2c          65  0.76379975000000000        3.7953597170552002E-002  0.76379975000000000        0.0000000000000000        9.3121321124480793E-016
 chl          65   1.1439992360353626E-020   1.4977737764844289E-020  0.76379975000000000     
 chl2c          66  0.35213202499999996        3.1840477731474713E-002  0.35213202499999996        0.0000000000000000        1.5390962722430606E-011
 chl          66   5.2600027095084763E-021   1.4937586859668548E-020  0.35213202499999996     
 chl2c          67  0.75736760000000003        3.7937587124568600E-002  0.75736760000000003        0.0000000000000000        7.6245821286124516E-006
 chl          67   1.1343653304389484E-020   1.4977737764844289E-020  0.75736760000000003     
 chl2c          68  0.72590779999999999        3.7855407263856986E-002  0.72590779999999999        0.0000000000000000        9.3869583553508969E-016
 chl          68   1.0872456669855036E-020   1.4977737764844289E-020  0.72590779999999999     
 chl2c          69  0.45524217500000003        2.1732330561541505E-002  0.45524217500000003        0.0000000000000000        5.3964157103966418E-016
 chl          69   6.8002195312469309E-021   1.4937586859668548E-020  0.45524217500000003     
 chl2c          70  0.48694062500000002        3.2658010878182209E-002  0.48694062500000002        0.0000000000000000        1.9043530750217944E-010
 chl          70   7.2737178814387906E-021   1.4937586859668548E-020  0.48694062500000002     
 chl2c          71  0.23986107500000001        4.3481058864416305E-002  0.23986107500000001        0.0000000000000000        2.1595062188839066E-021
 chl          71   3.5829456420659724E-021   1.4937586859668548E-020  0.23986107500000001     
 chl2c          72  0.62790522500000001        3.7549776402781669E-002  0.62790522500000001        0.0000000000000000        5.1621571926951854E-006
 chl          72   9.4045998012255500E-021   1.4977737764844289E-020  0.62790522500000001     
 chl2c          73  0.35362212500000001        3.1852614277819484E-002  0.35362212500000001        0.0000000000000000        1.6690770818989419E-011
 chl          73   5.2822612076880688E-021   1.4937586859668548E-020  0.35362212500000001     
 chl2c          74  0.64719590000000005        3.7616827685877569E-002  0.64719590000000005        0.0000000000000000        9.3433072566951927E-016
 chl          74   9.6935304726823889E-021   1.4977737764844289E-020  0.64719590000000005     
 chl2c          75  0.71554212500000003        3.7826830779512356E-002  0.71554212500000003        0.0000000000000000        7.0966038424743470E-006
 chl          75   1.0717202307949433E-020   1.4977737764844289E-020  0.71554212500000003     
 chl2c          76  0.55513977500000000        3.7257729557919804E-002  0.55513977500000000        0.0000000000000000        9.3441754961521096E-016
 chl          76   8.3147379727846615E-021   1.4977737764844289E-020  0.55513977500000000     
 chl2c          77  0.52973029999999999        3.7138172437479272E-002  0.52973029999999999        0.0000000000000000        9.2657655566454647E-016
 chl          77   7.9341615194922950E-021   1.4977737764844289E-020  0.52973029999999999     
 chl2c          78  0.45117492500000000        4.7515248899399322E-002  0.45117492500000000        0.0000000000000000        2.5090843120282247E-020
 chl          78   6.7394646310919431E-021   1.4937586859668548E-020  0.45117492500000000     
 prod   8.7619738763083981E-012   0.0000000000000000        10.000000000000000     
 chl2c           1  0.60826437499999997        3.7477407714772232E-002  0.60826437499999997        0.0000000000000000        9.3573033258381219E-016
 chl           1   9.0863810273393040E-021   1.4938210095469268E-020  0.60826437499999997     
 chl2c           2  0.48302390000000001        3.2640259920490348E-002  0.48302390000000001        0.0000000000000000        8.8586045203550037E-022
 chl           2   7.2152114354079926E-021   1.4937586805555568E-020  0.48302390000000001     
 chl2c           3  0.75128689999999998        3.7922212503796585E-002  0.75128689999999998        0.0000000000000000        7.4172105627101862E-006
 chl           3   1.1222881554173811E-020   1.4938210095469268E-020  0.75128689999999998     
 chl2c           4  0.77318742499999993        3.7976509103863923E-002  0.77318742499999993        0.0000000000000000        9.3912022552451157E-016
 chl           4   1.1550036197824887E-020   1.4938210095469268E-020  0.77318742499999993     
 chl2c           5  0.48489679999999996        2.5710500362372445E-002  0.48489679999999996        0.0000000000000000        5.3956925972487544E-016
 chl           5   7.2431880417361167E-021   1.4937586805555568E-020  0.48489679999999996     
 chl2c           6  0.29222855000000003        3.1261039902252048E-002  0.29222855000000003        0.0000000000000000        1.4112543254280898E-020
 chl           6   4.3651893326866364E-021   1.4937586805555568E-020  0.29222855000000003     
 chl2c           7  0.22770740000000000        4.3064391842467263E-002  0.22770740000000000        0.0000000000000000        8.6440909665870965E-022
 chl           7   3.4013990537673643E-021   1.4937586805555568E-020  0.22770740000000000     
 chl2c           8  0.49578364999999996        4.7969800906495587E-002  0.49578364999999996        0.0000000000000000        9.1849619705112441E-022
 chl           8   7.4058113086501802E-021   1.4937586805555568E-020  0.49578364999999996     
 chl2c           9  0.28700202499999999        2.4803669054600401E-002  0.28700202499999999        0.0000000000000000        5.4184050198752643E-016
 chl           9   4.2871176618077295E-021   1.4937586805555568E-020  0.28700202499999999     
 chl2c          10  0.39094662499999999        2.5387016219684602E-002  0.39094662499999999        0.0000000000000000        5.4184836571643156E-016
 chl          10   5.8397991472764806E-021   1.4937586805555568E-020  0.39094662499999999     
 chl2c          11  0.49737575000000001        2.1820572217820047E-002  0.49737575000000001        0.0000000000000000        4.3926798015827335E-006
 chl          11   7.4295934406033046E-021   1.4937586805555568E-020  0.49737575000000001     
 chl2c          12  0.30768942500000002        4.5290941298723353E-002  0.30768942500000002        0.0000000000000000        3.3977303267510876E-013
 chl          12   4.5961374950889796E-021   1.4937586805555568E-020  0.30768942500000002     
 chl2c          13  0.75666275000000005        3.7935816987997487E-002  0.75666275000000005        0.0000000000000000        4.8332418187239121E-006
 chl          13   1.1303187130915539E-020   1.4938210095469268E-020  0.75666275000000005     
 chl2c          14  0.39804095000000000        4.6856526101924839E-002  0.39804095000000000        0.0000000000000000        5.7153957199947986E-011
 chl          14   5.9457712427908041E-021   1.4937586805555568E-020  0.39804095000000000     
 chl2c          15  0.25607262500000000        2.0954299823745293E-002  0.25607262500000000        0.0000000000000000        5.4323432146806084E-016
 chl          15   3.8251070644639791E-021   1.4937586805555568E-020  0.25607262500000000     
 chl2c          16  0.71433214999999994        3.7823443882273475E-002  0.71433214999999994        0.0000000000000000        2.1923127804413897E-006
 chl          16   1.0670843734648267E-020   1.4938210095469268E-020  0.71433214999999994     
 chl2c          17  0.62580860000000005        3.7542254757581245E-002  0.62580860000000005        0.0000000000000000        7.6116543919280251E-006
 chl          17   9.3484603463514904E-021   1.4938210095469268E-020  0.62580860000000005     
 chl2c          18  0.47925950000000000        2.5694475239060960E-002  0.47925950000000000        0.0000000000000000        3.3135068938680453E-006
 chl          18   7.1589803836371582E-021   1.4937586805555568E-020  0.47925950000000000     
 chl2c          19  0.63367130000000005        3.7570220750293731E-002  0.63367130000000005        0.0000000000000000        9.2840687199887592E-016
 chl          19   9.4659150108691362E-021   1.4938210095469268E-020  0.63367130000000005     
 chl2c          20  0.50678202500000002        3.7020645196759419E-002  0.50678202500000002        0.0000000000000000        6.0299339510199066E-006
 chl          20   7.5704163620573595E-021   1.4938210095469268E-020  0.50678202500000002     
 chl2c          21  0.71973185000000006        3.7838475073783531E-002  0.71973185000000006        0.0000000000000000        9.3329170709220596E-016
 chl          21   1.0751505587700774E-020   1.4938210095469268E-020  0.71973185000000006     
 chl2c          22  0.64616892500000001        3.7613353106285476E-002  0.64616892500000001        0.0000000000000000        9.3808794985890453E-016
 chl          22   9.6526071588135243E-021   1.4938210095469268E-020  0.64616892500000001     
 chl2c          23  0.41564179999999995        3.2286562315070731E-002  0.41564179999999995        0.0000000000000000        1.2645856156158755E-021
 chl          23   6.2086854675173654E-021   1.4937586805555568E-020  0.41564179999999995     
 chl2c          24  0.57597492500000003        3.7348402796863071E-002  0.57597492500000003        0.0000000000000000        6.9166717374190819E-006
 chl          24   8.6040344393721551E-021   1.4938210095469268E-020  0.57597492500000003     
 chl2c          25  0.31406487500000002        4.5426679235459781E-002  0.31406487500000002        0.0000000000000000        9.6314971495261804E-022
 chl          25   4.6913713328884592E-021   1.4937586805555568E-020  0.31406487500000002     
 chl2c          26  0.49427735000000000        4.7955660680174553E-002  0.49427735000000000        0.0000000000000000        6.9915139044433394E-012
 chl          26   7.3833108216449716E-021   1.4937586805555568E-020  0.49427735000000000     
 chl2c          27  0.30964730000000001        4.5333133499525620E-002  0.30964730000000001        0.0000000000000000        8.6289502750335020E-011
 chl          27   4.6253834228559068E-021   1.4937586805555568E-020  0.30964730000000001     
 chl2c          28  0.28776342500000002        3.1209236063453518E-002  0.28776342500000002        0.0000000000000000        8.1426677746710904E-011
 chl          28   4.2984911404014795E-021   1.4937586805555568E-020  0.28776342500000002     
 chl2c          29  0.68676297499999994        3.7743217595736761E-002  0.68676297499999994        0.0000000000000000        9.3416837004107071E-016
 chl          29   1.0259009606339507E-020   1.4938210095469268E-020  0.68676297499999994     
 chl2c          30  0.38930277499999999        2.5380056985171612E-002  0.38930277499999999        0.0000000000000000        4.4053093103342012E-006
 chl          30   5.8152439952061683E-021   1.4937586805555568E-020  0.38930277499999999     
 chl2c          31  0.63559385000000002        3.7576959810037038E-002  0.63559385000000002        0.0000000000000000        9.3635830412739855E-016
 chl          31   9.4946344666881792E-021   1.4938210095469268E-020  0.63559385000000002     
 chl2c          32  0.24722667500000001        2.0893126428578448E-002  0.24722667500000001        0.0000000000000000        5.4365783295252960E-016
 chl          32   3.6929699184613745E-021   1.4937586805555568E-020  0.24722667500000001     
 chl2c          33  0.60343137499999999        3.7458922634011876E-002  0.60343137499999999        0.0000000000000000        9.2987407360504121E-016
 chl          33   9.0141846579479011E-021   1.4938210095469268E-020  0.60343137499999999     
 chl2c          34  0.38241020000000003        2.5350269098008315E-002  0.38241020000000003        0.0000000000000000        5.3925575714965700E-016
 chl          34   5.7122855578298668E-021   1.4937586805555568E-020  0.38241020000000003     
 chl2c          35  0.49574644999999995        2.5740370148566064E-002  0.49574644999999995        0.0000000000000000        4.3003677818609152E-006
 chl          35   7.4052556304210124E-021   1.4937586805555568E-020  0.49574644999999995     
 chl2c          36  0.69587337500000002        3.7770393924465726E-002  0.69587337500000002        0.0000000000000000        6.9735710711444863E-006
 chl          36   1.0395102675593272E-020   1.4938210095469268E-020  0.69587337500000002     
 chl2c          37  0.33194060000000003        2.1353674699533250E-002  0.33194060000000003        0.0000000000000000        2.4896874130170678E-006
 chl          37   4.9583915267881992E-021   1.4937586805555568E-020  0.33194060000000003     
 chl2c          38  0.38455722500000000        2.1543295686358745E-002  0.38455722500000000        0.0000000000000000        4.2037272984115689E-006
 chl          38   5.7443569301410636E-021   1.4937586805555568E-020  0.38455722500000000     
 chl2c          39  0.47091117500000002        2.5670077108751441E-002  0.47091117500000002        0.0000000000000000        3.7615652047776670E-006
 chl          39   7.0342765542686698E-021   1.4937586805555568E-020  0.47091117500000002     
 chl2c          40  0.66875547499999999        3.7687445774703773E-002  0.66875547499999999        0.0000000000000000        2.2143857922610238E-006
 chl          40   9.9900097880453449E-021   1.4938210095469268E-020  0.66875547499999999     
 chl2c          41  0.44304987499999998        2.5582381488167241E-002  0.44304987499999998        0.0000000000000000        5.3742518614191661E-016
 chl          41   6.6180959670030433E-021   1.4937586805555568E-020  0.44304987499999998     
 chl2c          42  0.76234377499999995        3.7949995630725070E-002  0.76234377499999995        0.0000000000000000        1.2232654676835064E-006
 chl          42   1.1388051475923152E-020   1.4938210095469268E-020  0.76234377499999995     
 chl2c          43  0.29539925000000000        2.1185090152268007E-002  0.29539925000000000        0.0000000000000000        5.4365991417476961E-016
 chl          43   4.4125519391710110E-021   1.4937586805555568E-020  0.29539925000000000     
 chl2c          44  0.62417262500000004        3.7536352708156646E-002  0.62417262500000004        0.0000000000000000        6.3640137284764097E-006
 chl          44   9.3240218080905536E-021   1.4938210095469268E-020  0.62417262500000004     
 chl2c          45  0.37662252499999999        4.6544927192009838E-002  0.37662252499999999        0.0000000000000000        1.1643192656783659E-021
 chl          45   5.6258316601150222E-021   1.4937586805555568E-020  0.37662252499999999     
 chl2c          46  0.51876034999999998        3.7083195475449568E-002  0.51876034999999998        0.0000000000000000        9.3633137916848807E-016
 chl          46   7.7493510974991700E-021   1.4938210095469268E-020  0.51876034999999998     
 chl2c          47  0.61962282499999999        3.7519784612651236E-002  0.61962282499999999        0.0000000000000000        7.5913998371108283E-006
 chl          47   9.2560559397981870E-021   1.4938210095469268E-020  0.61962282499999999     
 chl2c          48  0.71424949999999998        3.7823212136301673E-002  0.71424949999999998        0.0000000000000000        3.3349989820568238E-006
 chl          48   1.0669609091583877E-020   1.4938210095469268E-020  0.71424949999999998     
 chl2c          49  0.53276120000000005        3.7152990741888416E-002  0.53276120000000005        0.0000000000000000        7.5617326683369381E-006
 chl          49   7.9584987363143221E-021   1.4938210095469268E-020  0.53276120000000005     
 chl2c          50  0.38132569999999999        2.1533072915600981E-002  0.38132569999999999        0.0000000000000000        5.4081513995238886E-016
 chl          50   5.6960857449392411E-021   1.4937586805555568E-020  0.38132569999999999     
 chl2c          51  0.22275920000000002        2.0700971146093840E-002  0.22275920000000002        0.0000000000000000        4.2604301194872883E-006
 chl          51   3.3274848867361143E-021   1.4937586805555568E-020  0.22275920000000002     
 chl2c          52  0.63698869999999996        3.7581825176985564E-002  0.63698869999999996        0.0000000000000000        3.9024285895039477E-006
 chl          52   9.5154710290398449E-021   1.4938210095469268E-020  0.63698869999999996     
 chl2c          53  0.75269794999999995        3.7925801262726190E-002  0.75269794999999995        0.0000000000000000        4.5443749932757821E-007
 chl          53   1.1243960115529021E-020   1.4938210095469268E-020  0.75269794999999995     
 chl2c          54  0.51861124999999997        3.7082433371327092E-002  0.51861124999999997        0.0000000000000000        7.5216460324826989E-006
 chl          54   7.7471238103739363E-021   1.4938210095469268E-020  0.51861124999999997     
 chl2c          55  0.57808280000000001        3.7357235588660491E-002  0.57808280000000001        0.0000000000000000        9.3784989216324560E-016
 chl          55   8.6355223189771424E-021   1.4938210095469268E-020  0.57808280000000001     
 chl2c          56  0.61626080000000005        3.7507394187257688E-002  0.61626080000000005        0.0000000000000000        6.6763651083189886E-006
 chl          56   9.2058333040019679E-021   1.4938210095469268E-020  0.61626080000000005     
 chl2c          57  0.68163462500000005        3.7727617852646313E-002  0.68163462500000005        0.0000000000000000        9.3832720634995254E-016
 chl          57   1.0182401236596409E-020   1.4938210095469268E-020  0.68163462500000005     
 chl2c          58  0.69416802499999997        3.7765358178394853E-002  0.69416802499999997        0.0000000000000000        9.3738618591276860E-016
 chl          58   1.0369627799006963E-020   1.4938210095469268E-020  0.69416802499999997     
 chl2c          59  0.53705127500000005        3.7173699120809672E-002  0.53705127500000005        0.0000000000000000        9.3909778727509459E-016
 chl          59   8.0225847779896434E-021   1.4938210095469268E-020  0.53705127500000005     
 chl2c          60  0.64452155000000000        3.7607757740906807E-002  0.64452155000000000        0.0000000000000000        9.2749715381079288E-016
 chl          60   9.6279983249575008E-021   1.4938210095469268E-020  0.64452155000000000     
 chl2c          61  0.70794139999999994        3.7805373434125003E-002  0.70794139999999994        0.0000000000000000        7.3990328466544521E-006
 chl          61   1.0575377368480647E-020   1.4938210095469268E-020  0.70794139999999994     
 chl2c          62  0.76481592499999995        3.7956103087269030E-002  0.76481592499999995        0.0000000000000000        3.1147190334750122E-006
 chl          62   1.1424980972010666E-020   1.4938210095469268E-020  0.76481592499999995     
 chl2c          63  0.72597904999999996        3.7855601011927406E-002  0.72597904999999996        0.0000000000000000        9.2795546937808062E-016
 chl          63   1.0844827573809187E-020   1.4938210095469268E-020  0.72597904999999996     
 chl2c          64  0.48435739999999999        2.5708982294816416E-002  0.48435739999999999        0.0000000000000000        4.3281261619852870E-006
 chl          64   7.2351307074132012E-021   1.4937586805555568E-020  0.48435739999999999     
 chl2c          65  0.76379975000000000        3.7953597170552002E-002  0.76379975000000000        0.0000000000000000        9.3121321117040868E-016
 chl          65   1.1409801136366903E-020   1.4938210095469268E-020  0.76379975000000000     
 chl2c          66  0.35213202499999996        3.1840477731474713E-002  0.35213202499999996        0.0000000000000000        7.6187915087767859E-012
 chl          66   5.2600026904535632E-021   1.4937586805555568E-020  0.35213202499999996     
 chl2c          67  0.75736760000000003        3.7937587124568600E-002  0.75736760000000003        0.0000000000000000        7.5590221316743143E-006
 chl          67   1.1313716328301331E-020   1.4938210095469268E-020  0.75736760000000003     
 chl2c          68  0.72590779999999999        3.7855407263856986E-002  0.72590779999999999        0.0000000000000000        9.3869583547694807E-016
 chl          68   1.0843763226339886E-020   1.4938210095469268E-020  0.72590779999999999     
 chl2c          69  0.45524217500000003        2.1732330561541505E-002  0.45524217500000003        0.0000000000000000        5.3964157101359115E-016
 chl          69   6.8002195066124196E-021   1.4937586805555568E-020  0.45524217500000003     
 chl2c          70  0.48694062500000002        3.2658010878182209E-002  0.48694062500000002        0.0000000000000000        1.0058325798516367E-010
 chl          70   7.2737178550889815E-021   1.4937586805555568E-020  0.48694062500000002     
 chl2c          71  0.23986107500000001        4.3481058864416305E-002  0.23986107500000001        0.0000000000000000        1.0707263358588984E-021
 chl          71   3.5829456290863744E-021   1.4937586805555568E-020  0.23986107500000001     
 chl2c          72  0.62790522500000001        3.7549776402781669E-002  0.62790522500000001        0.0000000000000000        4.8610201679777883E-006
 chl          72   9.3797801710929024E-021   1.4938210095469268E-020  0.62790522500000001     
 chl2c          73  0.35362212500000001        3.1852614277819484E-002  0.35362212500000001        0.0000000000000000        8.4590819411283222E-012
 chl          73   5.2822611885525217E-021   1.4937586805555568E-020  0.35362212500000001     
 chl2c          74  0.64719590000000005        3.7616827685877569E-002  0.64719590000000005        0.0000000000000000        9.3433072560186084E-016
 chl          74   9.6679483271263196E-021   1.4938210095469268E-020  0.64719590000000005     
 chl2c          75  0.71554212500000003        3.7826830779512356E-002  0.71554212500000003        0.0000000000000000        7.1175699702143870E-006
 chl          75   1.0688918595408533E-020   1.4938210095469268E-020  0.71554212500000003     
 chl2c          76  0.55513977500000000        3.7257729557919804E-002  0.55513977500000000        0.0000000000000000        9.3441754954774107E-016
 chl          76   8.2927945913015381E-021   1.4938210095469268E-020  0.55513977500000000     
 chl2c          77  0.52973029999999999        3.7138172437479272E-002  0.52973029999999999        0.0000000000000000        9.2657655558020758E-016
 chl          77   7.9132225153359639E-021   1.4938210095469268E-020  0.52973029999999999     
 chl2c          78  0.45117492500000000        4.7515248899399322E-002  0.45117492500000000        0.0000000000000000        1.3532339505420698E-020
 chl          78   6.7394646066775236E-021   1.4937586805555568E-020  0.45117492500000000     
 prod   4.3443531526152700E-012   0.0000000000000000        10.000000000000000     
 fe   1.3005201698049037E-003
(PID.TID 0000.0001) // =======================================================
(PID.TID 0000.0001) // Begin MONITOR dynamic field statistics
(PID.TID 0000.0001) // =======================================================
(PID.TID 0000.0001) %MON time_tsnumber                =                     4
(PID.TID 0000.0001) %MON time_secondsf                =   1.4400000000000000E+04
(PID.TID 0000.0001) %MON dynstat_eta_max              =   0.0000000000000000E+00
(PID.TID 0000.0001) %MON dynstat_eta_min              =   0.0000000000000000E+00
(PID.TID 0000.0001) %MON dynstat_eta_mean             =   0.0000000000000000E+00
(PID.TID 0000.0001) %MON dynstat_eta_sd               =   0.0000000000000000E+00
(PID.TID 0000.0001) %MON dynstat_eta_del2             =   0.0000000000000000E+00
(PID.TID 0000.0001) %MON dynstat_uvel_max             =   0.0000000000000000E+00
(PID.TID 0000.0001) %MON dynstat_uvel_min             =   0.0000000000000000E+00
(PID.TID 0000.0001) %MON dynstat_uvel_mean            =   0.0000000000000000E+00
(PID.TID 0000.0001) %MON dynstat_uvel_sd              =   0.0000000000000000E+00
(PID.TID 0000.0001) %MON dynstat_uvel_del2            =   0.0000000000000000E+00
(PID.TID 0000.0001) %MON dynstat_vvel_max             =   0.0000000000000000E+00
(PID.TID 0000.0001) %MON dynstat_vvel_min             =   0.0000000000000000E+00
(PID.TID 0000.0001) %MON dynstat_vvel_mean            =   0.0000000000000000E+00
(PID.TID 0000.0001) %MON dynstat_vvel_sd              =   0.0000000000000000E+00
(PID.TID 0000.0001) %MON dynstat_vvel_del2            =   0.0000000000000000E+00
(PID.TID 0000.0001) %MON dynstat_wvel_max             =   0.0000000000000000E+00
(PID.TID 0000.0001) %MON dynstat_wvel_min             =   0.0000000000000000E+00
(PID.TID 0000.0001) %MON dynstat_wvel_mean            =   0.0000000000000000E+00
(PID.TID 0000.0001) %MON dynstat_wvel_sd              =   0.0000000000000000E+00
(PID.TID 0000.0001) %MON dynstat_wvel_del2            =   0.0000000000000000E+00
(PID.TID 0000.0001) %MON dynstat_theta_max            =   2.6307340345579252E+01
(PID.TID 0000.0001) %MON dynstat_theta_min            =   2.6737009916297056E+00
(PID.TID 0000.0001) %MON dynstat_theta_mean           =   5.4734908053327649E+00
(PID.TID 0000.0001) %MON dynstat_theta_sd             =   5.1967318185907638E+00
(PID.TID 0000.0001) %MON dynstat_theta_del2           =   0.0000000000000000E+00
(PID.TID 0000.0001) %MON dynstat_salt_max             =   3.5000000000000000E+01
(PID.TID 0000.0001) %MON dynstat_salt_min             =   3.5000000000000000E+01
(PID.TID 0000.0001) %MON dynstat_salt_mean            =   3.5000000000000007E+01
(PID.TID 0000.0001) %MON dynstat_salt_sd              =   7.1054273576010019E-15
(PID.TID 0000.0001) %MON dynstat_salt_del2            =   0.0000000000000000E+00
(PID.TID 0000.0001) %MON dynstat_sst_max              =   2.6307340345579252E+01
(PID.TID 0000.0001) %MON dynstat_sst_min              =   2.6307340345579252E+01
(PID.TID 0000.0001) %MON dynstat_sst_mean             =   2.6307340345579252E+01
(PID.TID 0000.0001) %MON dynstat_sst_sd               =   0.0000000000000000E+00
(PID.TID 0000.0001) %MON dynstat_sst_del2             =   0.0000000000000000E+00
(PID.TID 0000.0001) %MON dynstat_sss_max              =   3.5000000000000000E+01
(PID.TID 0000.0001) %MON dynstat_sss_min              =   3.5000000000000000E+01
(PID.TID 0000.0001) %MON dynstat_sss_mean             =   3.5000000000000000E+01
(PID.TID 0000.0001) %MON dynstat_sss_sd               =   0.0000000000000000E+00
(PID.TID 0000.0001) %MON dynstat_sss_del2             =   0.0000000000000000E+00
(PID.TID 0000.0001) %MON forcing_qnet_max             =   0.0000000000000000E+00
(PID.TID 0000.0001) %MON forcing_qnet_min             =   0.0000000000000000E+00
(PID.TID 0000.0001) %MON forcing_qnet_mean            =   0.0000000000000000E+00
(PID.TID 0000.0001) %MON forcing_qnet_sd              =   0.0000000000000000E+00
(PID.TID 0000.0001) %MON forcing_qnet_del2            =   0.0000000000000000E+00
(PID.TID 0000.0001) %MON forcing_qsw_max              =   0.0000000000000000E+00
(PID.TID 0000.0001) %MON forcing_qsw_min              =   0.0000000000000000E+00
(PID.TID 0000.0001) %MON forcing_qsw_mean             =   0.0000000000000000E+00
(PID.TID 0000.0001) %MON forcing_qsw_sd               =   0.0000000000000000E+00
(PID.TID 0000.0001) %MON forcing_qsw_del2             =   0.0000000000000000E+00
(PID.TID 0000.0001) %MON forcing_empmr_max            =   0.0000000000000000E+00
(PID.TID 0000.0001) %MON forcing_empmr_min            =   0.0000000000000000E+00
(PID.TID 0000.0001) %MON forcing_empmr_mean           =   0.0000000000000000E+00
(PID.TID 0000.0001) %MON forcing_empmr_sd             =   0.0000000000000000E+00
(PID.TID 0000.0001) %MON forcing_empmr_del2           =   0.0000000000000000E+00
(PID.TID 0000.0001) %MON forcing_fu_max               =   0.0000000000000000E+00
(PID.TID 0000.0001) %MON forcing_fu_min               =   0.0000000000000000E+00
(PID.TID 0000.0001) %MON forcing_fu_mean              =   0.0000000000000000E+00
(PID.TID 0000.0001) %MON forcing_fu_sd                =   0.0000000000000000E+00
(PID.TID 0000.0001) %MON forcing_fu_del2              =   0.0000000000000000E+00
(PID.TID 0000.0001) %MON forcing_fv_max               =   0.0000000000000000E+00
(PID.TID 0000.0001) %MON forcing_fv_min               =   0.0000000000000000E+00
(PID.TID 0000.0001) %MON forcing_fv_mean              =   0.0000000000000000E+00
(PID.TID 0000.0001) %MON forcing_fv_sd                =   0.0000000000000000E+00
(PID.TID 0000.0001) %MON forcing_fv_del2              =   0.0000000000000000E+00
(PID.TID 0000.0001) %MON advcfl_uvel_max              =   0.0000000000000000E+00
(PID.TID 0000.0001) %MON advcfl_vvel_max              =   0.0000000000000000E+00
(PID.TID 0000.0001) %MON advcfl_wvel_max              =   0.0000000000000000E+00
(PID.TID 0000.0001) %MON advcfl_W_hf_max              =   0.0000000000000000E+00
(PID.TID 0000.0001) %MON pe_b_mean                    =   0.0000000000000000E+00
(PID.TID 0000.0001) %MON ke_max                       =   0.0000000000000000E+00
(PID.TID 0000.0001) %MON ke_mean                      =   0.0000000000000000E+00
(PID.TID 0000.0001) %MON ke_vol                       =   4.1199767883484609E+13
(PID.TID 0000.0001) %MON vort_r_min                   =   0.0000000000000000E+00
(PID.TID 0000.0001) %MON vort_r_max                   =   0.0000000000000000E+00
(PID.TID 0000.0001) %MON vort_a_mean                  =  -4.5067801836624727E-05
(PID.TID 0000.0001) %MON vort_a_sd                    =  -4.1359030627651384E-25
(PID.TID 0000.0001) %MON vort_p_mean                  =  -4.5067801836624727E-05
(PID.TID 0000.0001) %MON vort_p_sd                    =   0.0000000000000000E+00
(PID.TID 0000.0001) %MON surfExpan_theta_mean         =   0.0000000000000000E+00
(PID.TID 0000.0001) %MON surfExpan_salt_mean          =   0.0000000000000000E+00
(PID.TID 0000.0001) // =======================================================
(PID.TID 0000.0001) // End MONITOR dynamic field statistics
(PID.TID 0000.0001) // =======================================================
(PID.TID 0000.0001) // =======================================================
(PID.TID 0000.0001) // Begin MONITOR ptracer field statistics
(PID.TID 0000.0001) // =======================================================
(PID.TID 0000.0001) %MON trcstat_ptracer01_max        =   2.0000000000000023E+03
(PID.TID 0000.0001) %MON trcstat_ptracer01_min        =   1.9999992612898334E+03
(PID.TID 0000.0001) %MON trcstat_ptracer01_mean       =   1.9999999781745996E+03
(PID.TID 0000.0001) %MON trcstat_ptracer01_sd         =   1.1422846095639342E-04
(PID.TID 0000.0001) %MON trcstat_ptracer01_del2       =   0.0000000000000000E+00
(PID.TID 0000.0001) %MON trcstat_ptracer02_max        =   2.5666834578278876E-02
(PID.TID 0000.0001) %MON trcstat_ptracer02_min        =   1.8771465384296467E-07
(PID.TID 0000.0001) %MON trcstat_ptracer02_mean       =   6.0897558675989001E-04
(PID.TID 0000.0001) %MON trcstat_ptracer02_sd         =   3.2601425974905806E-03
(PID.TID 0000.0001) %MON trcstat_ptracer02_del2       =   0.0000000000000000E+00
(PID.TID 0000.0001) %MON trcstat_ptracer03_max        =   1.8245570962621076E-02
(PID.TID 0000.0001) %MON trcstat_ptracer03_min        =   3.8775807092714251E-06
(PID.TID 0000.0001) %MON trcstat_ptracer03_mean       =   6.0455466714359957E-04
(PID.TID 0000.0001) %MON trcstat_ptracer03_sd         =   1.9421140210928367E-03
(PID.TID 0000.0001) %MON trcstat_ptracer03_del2       =   0.0000000000000000E+00
(PID.TID 0000.0001) %MON trcstat_ptracer04_max        =   3.3903492981311452E+01
(PID.TID 0000.0001) %MON trcstat_ptracer04_min        =   4.6481961585848955E-02
(PID.TID 0000.0001) %MON trcstat_ptracer04_mean       =   2.3502391560102758E+01
(PID.TID 0000.0001) %MON trcstat_ptracer04_sd         =   7.8161962583776354E+00
(PID.TID 0000.0001) %MON trcstat_ptracer04_del2       =   0.0000000000000000E+00
(PID.TID 0000.0001) %MON trcstat_ptracer05_max        =   2.2436996440742858E+00
(PID.TID 0000.0001) %MON trcstat_ptracer05_min        =   2.1025673960629510E-01
(PID.TID 0000.0001) %MON trcstat_ptracer05_mean       =   1.5821341839984815E+00
(PID.TID 0000.0001) %MON trcstat_ptracer05_sd         =   4.6734942565709109E-01
(PID.TID 0000.0001) %MON trcstat_ptracer05_del2       =   0.0000000000000000E+00
(PID.TID 0000.0001) %MON trcstat_ptracer06_max        =   3.9387400649807098E+01
(PID.TID 0000.0001) %MON trcstat_ptracer06_min        =   1.2247959448694465E+00
(PID.TID 0000.0001) %MON trcstat_ptracer06_mean       =   2.9621891103938726E+01
(PID.TID 0000.0001) %MON trcstat_ptracer06_sd         =   1.1270581642703560E+01
(PID.TID 0000.0001) %MON trcstat_ptracer06_del2       =   0.0000000000000000E+00
(PID.TID 0000.0001) %MON trcstat_ptracer07_max        =   1.3005201698049037E-03
(PID.TID 0000.0001) %MON trcstat_ptracer07_min        =   1.2999415676275515E-03
(PID.TID 0000.0001) %MON trcstat_ptracer07_mean       =   1.2999436502112826E-03
(PID.TID 0000.0001) %MON trcstat_ptracer07_sd         =   3.0895222895204761E-08
(PID.TID 0000.0001) %MON trcstat_ptracer07_del2       =   0.0000000000000000E+00
(PID.TID 0000.0001) %MON trcstat_ptracer08_max        =   7.2945670597804552E-04
(PID.TID 0000.0001) %MON trcstat_ptracer08_min        =  -9.8979220088746355E-19
(PID.TID 0000.0001) %MON trcstat_ptracer08_mean       =   2.1751226832457320E-05
(PID.TID 0000.0001) %MON trcstat_ptracer08_sd         =   1.1402736753295089E-04
(PID.TID 0000.0001) %MON trcstat_ptracer08_del2       =   0.0000000000000000E+00
(PID.TID 0000.0001) %MON trcstat_ptracer09_max        =   8.1773416067647861E-02
(PID.TID 0000.0001) %MON trcstat_ptracer09_min        =  -1.3197229345165162E-19
(PID.TID 0000.0001) %MON trcstat_ptracer09_mean       =   3.4329421405193549E-03
(PID.TID 0000.0001) %MON trcstat_ptracer09_sd         =   1.4780389379364160E-02
(PID.TID 0000.0001) %MON trcstat_ptracer09_del2       =   0.0000000000000000E+00
(PID.TID 0000.0001) %MON trcstat_ptracer10_max        =   5.1108385042279913E-03
(PID.TID 0000.0001) %MON trcstat_ptracer10_min        =  -8.2482683407282264E-21
(PID.TID 0000.0001) %MON trcstat_ptracer10_mean       =   2.1455888378245968E-04
(PID.TID 0000.0001) %MON trcstat_ptracer10_sd         =   9.2377433621025997E-04
(PID.TID 0000.0001) %MON trcstat_ptracer10_del2       =   0.0000000000000000E+00
(PID.TID 0000.0001) %MON trcstat_ptracer11_max        =   5.1108381458572838E-06
(PID.TID 0000.0001) %MON trcstat_ptracer11_min        =  -8.2482683407282305E-24
(PID.TID 0000.0001) %MON trcstat_ptracer11_mean       =   2.1455888408845230E-07
(PID.TID 0000.0001) %MON trcstat_ptracer11_sd         =   9.2377433586856730E-07
(PID.TID 0000.0001) %MON trcstat_ptracer11_del2       =   0.0000000000000000E+00
(PID.TID 0000.0001) %MON trcstat_ptracer12_max        =   4.1262138592064169E-04
(PID.TID 0000.0001) %MON trcstat_ptracer12_min        =  -5.6048470869818299E-19
(PID.TID 0000.0001) %MON trcstat_ptracer12_mean       =   1.2312949118031074E-05
(PID.TID 0000.0001) %MON trcstat_ptracer12_sd         =   6.4306100117288243E-05
(PID.TID 0000.0001) %MON trcstat_ptracer12_del2       =   0.0000000000000000E+00
(PID.TID 0000.0001) %MON trcstat_ptracer13_max        =   4.3444029282960978E-03
(PID.TID 0000.0001) %MON trcstat_ptracer13_min        =   1.8829962345039237E-05
(PID.TID 0000.0001) %MON trcstat_ptracer13_mean       =   1.2603466313543504E-03
(PID.TID 0000.0001) %MON trcstat_ptracer13_sd         =   1.5417375337192331E-03
(PID.TID 0000.0001) %MON trcstat_ptracer13_del2       =   0.0000000000000000E+00
(PID.TID 0000.0001) %MON trcstat_ptracer14_max        =   2.7152518301850611E-04
(PID.TID 0000.0001) %MON trcstat_ptracer14_min        =   1.1768726465649523E-06
(PID.TID 0000.0001) %MON trcstat_ptracer14_mean       =   7.8771664459646899E-05
(PID.TID 0000.0001) %MON trcstat_ptracer14_sd         =   9.6358595857452071E-05
(PID.TID 0000.0001) %MON trcstat_ptracer14_del2       =   0.0000000000000000E+00
(PID.TID 0000.0001) %MON trcstat_ptracer15_max        =   1.6239075643478887E-02
(PID.TID 0000.0001) %MON trcstat_ptracer15_min        =   1.1401897530467083E-03
(PID.TID 0000.0001) %MON trcstat_ptracer15_mean       =   5.4875256267266706E-03
(PID.TID 0000.0001) %MON trcstat_ptracer15_sd         =   5.1667191679432775E-03
(PID.TID 0000.0001) %MON trcstat_ptracer15_del2       =   0.0000000000000000E+00
(PID.TID 0000.0001) %MON trcstat_ptracer16_max        =   2.7152519897929814E-07
(PID.TID 0000.0001) %MON trcstat_ptracer16_min        =   1.1768725182749898E-09
(PID.TID 0000.0001) %MON trcstat_ptracer16_mean       =   7.8771664984513658E-08
(PID.TID 0000.0001) %MON trcstat_ptracer16_sd         =   9.6358597911535396E-08
(PID.TID 0000.0001) %MON trcstat_ptracer16_del2       =   0.0000000000000000E+00
(PID.TID 0000.0001) %MON trcstat_ptracer17_max        =   0.0000000000000000E+00
(PID.TID 0000.0001) %MON trcstat_ptracer17_min        =   0.0000000000000000E+00
(PID.TID 0000.0001) %MON trcstat_ptracer17_mean       =   0.0000000000000000E+00
(PID.TID 0000.0001) %MON trcstat_ptracer17_sd         =   0.0000000000000000E+00
(PID.TID 0000.0001) %MON trcstat_ptracer17_del2       =   0.0000000000000000E+00
(PID.TID 0000.0001) %MON trcstat_ptracer18_max        =   8.6683865064510473E-04
(PID.TID 0000.0001) %MON trcstat_ptracer18_min        =   1.9876591625811682E-20
(PID.TID 0000.0001) %MON trcstat_ptracer18_mean       =   2.5893797396428500E-05
(PID.TID 0000.0001) %MON trcstat_ptracer18_sd         =   1.3549166261085457E-04
(PID.TID 0000.0001) %MON trcstat_ptracer18_del2       =   0.0000000000000000E+00
(PID.TID 0000.0001) %MON trcstat_ptracer19_max        =   8.8608411870099910E-04
(PID.TID 0000.0001) %MON trcstat_ptracer19_min        =   1.9875346860532420E-20
(PID.TID 0000.0001) %MON trcstat_ptracer19_mean       =   2.6384983561044943E-05
(PID.TID 0000.0001) %MON trcstat_ptracer19_sd         =   1.3856317544109608E-04
(PID.TID 0000.0001) %MON trcstat_ptracer19_del2       =   0.0000000000000000E+00
(PID.TID 0000.0001) %MON trcstat_ptracer20_max        =   8.6683865064524665E-04
(PID.TID 0000.0001) %MON trcstat_ptracer20_min        =   1.9876591625811682E-20
(PID.TID 0000.0001) %MON trcstat_ptracer20_mean       =   2.5849548567591728E-05
(PID.TID 0000.0001) %MON trcstat_ptracer20_sd         =   1.3545288047770977E-04
(PID.TID 0000.0001) %MON trcstat_ptracer20_del2       =   0.0000000000000000E+00
(PID.TID 0000.0001) %MON trcstat_ptracer21_max        =   9.0048337864669483E-04
(PID.TID 0000.0001) %MON trcstat_ptracer21_min        =   1.9876591625811682E-20
(PID.TID 0000.0001) %MON trcstat_ptracer21_mean       =   2.6855586620348254E-05
(PID.TID 0000.0001) %MON trcstat_ptracer21_sd         =   1.4059852137404393E-04
(PID.TID 0000.0001) %MON trcstat_ptracer21_del2       =   0.0000000000000000E+00
(PID.TID 0000.0001) %MON trcstat_ptracer22_max        =   8.9612395588663121E-04
(PID.TID 0000.0001) %MON trcstat_ptracer22_min        =   1.9875346860532420E-20
(PID.TID 0000.0001) %MON trcstat_ptracer22_mean       =   2.6662183041391831E-05
(PID.TID 0000.0001) %MON trcstat_ptracer22_sd         =   1.4000111372080657E-04
(PID.TID 0000.0001) %MON trcstat_ptracer22_del2       =   0.0000000000000000E+00
(PID.TID 0000.0001) %MON trcstat_ptracer23_max        =   8.6691171288777208E-04
(PID.TID 0000.0001) %MON trcstat_ptracer23_min        =   1.9875346860532420E-20
(PID.TID 0000.0001) %MON trcstat_ptracer23_mean       =   2.5849550716498421E-05
(PID.TID 0000.0001) %MON trcstat_ptracer23_sd         =   1.3552172166988175E-04
(PID.TID 0000.0001) %MON trcstat_ptracer23_del2       =   0.0000000000000000E+00
(PID.TID 0000.0001) %MON trcstat_ptracer24_max        =   8.8380685529047451E-04
(PID.TID 0000.0001) %MON trcstat_ptracer24_min        =   1.9875346860532420E-20
(PID.TID 0000.0001) %MON trcstat_ptracer24_mean       =   2.6318140463943802E-05
(PID.TID 0000.0001) %MON trcstat_ptracer24_sd         =   1.3814990101498380E-04
(PID.TID 0000.0001) %MON trcstat_ptracer24_del2       =   0.0000000000000000E+00
(PID.TID 0000.0001) %MON trcstat_ptracer25_max        =   8.6691171288752879E-04
(PID.TID 0000.0001) %MON trcstat_ptracer25_min        =   1.9875346860532420E-20
(PID.TID 0000.0001) %MON trcstat_ptracer25_mean       =   2.5870769236073732E-05
(PID.TID 0000.0001) %MON trcstat_ptracer25_sd         =   1.3560177837493054E-04
(PID.TID 0000.0001) %MON trcstat_ptracer25_del2       =   0.0000000000000000E+00
(PID.TID 0000.0001) %MON trcstat_ptracer26_max        =   8.7354880510016474E-04
(PID.TID 0000.0001) %MON trcstat_ptracer26_min        =   1.9875346860532420E-20
(PID.TID 0000.0001) %MON trcstat_ptracer26_mean       =   2.6156369358610037E-05
(PID.TID 0000.0001) %MON trcstat_ptracer26_sd         =   1.3684669014564900E-04
(PID.TID 0000.0001) %MON trcstat_ptracer26_del2       =   0.0000000000000000E+00
(PID.TID 0000.0001) %MON trcstat_ptracer27_max        =   9.0191414465866653E-04
(PID.TID 0000.0001) %MON trcstat_ptracer27_min        =   1.9875346860532420E-20
(PID.TID 0000.0001) %MON trcstat_ptracer27_mean       =   2.6841352497097442E-05
(PID.TID 0000.0001) %MON trcstat_ptracer27_sd         =   1.4092816625546883E-04
(PID.TID 0000.0001) %MON trcstat_ptracer27_del2       =   0.0000000000000000E+00
(PID.TID 0000.0001) %MON trcstat_ptracer28_max        =   8.6691171288829933E-04
(PID.TID 0000.0001) %MON trcstat_ptracer28_min        =   1.9875346860532420E-20
(PID.TID 0000.0001) %MON trcstat_ptracer28_mean       =   2.5849548560087128E-05
(PID.TID 0000.0001) %MON trcstat_ptracer28_sd         =   1.3552172203866431E-04
(PID.TID 0000.0001) %MON trcstat_ptracer28_del2       =   0.0000000000000000E+00
(PID.TID 0000.0001) %MON trcstat_ptracer29_max        =   8.6691171288740649E-04
(PID.TID 0000.0001) %MON trcstat_ptracer29_min        =   1.9875346860532420E-20
(PID.TID 0000.0001) %MON trcstat_ptracer29_mean       =   2.5849548560059355E-05
(PID.TID 0000.0001) %MON trcstat_ptracer29_sd         =   1.3552172203853185E-04
(PID.TID 0000.0001) %MON trcstat_ptracer29_del2       =   0.0000000000000000E+00
(PID.TID 0000.0001) %MON trcstat_ptracer30_max        =   8.6683865037660434E-04
(PID.TID 0000.0001) %MON trcstat_ptracer30_min        =   1.9876591625811682E-20
(PID.TID 0000.0001) %MON trcstat_ptracer30_mean       =   2.5849613850975526E-05
(PID.TID 0000.0001) %MON trcstat_ptracer30_sd         =   1.3545286832938408E-04
(PID.TID 0000.0001) %MON trcstat_ptracer30_del2       =   0.0000000000000000E+00
(PID.TID 0000.0001) %MON trcstat_ptracer31_max        =   8.6691171288750667E-04
(PID.TID 0000.0001) %MON trcstat_ptracer31_min        =   1.9875346860532420E-20
(PID.TID 0000.0001) %MON trcstat_ptracer31_mean       =   2.5849548560064204E-05
(PID.TID 0000.0001) %MON trcstat_ptracer31_sd         =   1.3552172203855253E-04
(PID.TID 0000.0001) %MON trcstat_ptracer31_del2       =   0.0000000000000000E+00
(PID.TID 0000.0001) %MON trcstat_ptracer32_max        =   9.0725477749927798E-04
(PID.TID 0000.0001) %MON trcstat_ptracer32_min        =   1.9875346860532420E-20
(PID.TID 0000.0001) %MON trcstat_ptracer32_mean       =   2.6998741454848675E-05
(PID.TID 0000.0001) %MON trcstat_ptracer32_sd         =   1.4175690600366818E-04
(PID.TID 0000.0001) %MON trcstat_ptracer32_del2       =   0.0000000000000000E+00
(PID.TID 0000.0001) %MON trcstat_ptracer33_max        =   8.6683865064532688E-04
(PID.TID 0000.0001) %MON trcstat_ptracer33_min        =   1.9876591625811682E-20
(PID.TID 0000.0001) %MON trcstat_ptracer33_mean       =   2.5850552407460898E-05
(PID.TID 0000.0001) %MON trcstat_ptracer33_sd         =   1.3545272714617914E-04
(PID.TID 0000.0001) %MON trcstat_ptracer33_del2       =   0.0000000000000000E+00
(PID.TID 0000.0001) %MON trcstat_ptracer34_max        =   8.6683865064532580E-04
(PID.TID 0000.0001) %MON trcstat_ptracer34_min        =   1.9876591625811682E-20
(PID.TID 0000.0001) %MON trcstat_ptracer34_mean       =   2.5849548567594059E-05
(PID.TID 0000.0001) %MON trcstat_ptracer34_sd         =   1.3545288047772208E-04
(PID.TID 0000.0001) %MON trcstat_ptracer34_del2       =   0.0000000000000000E+00
(PID.TID 0000.0001) %MON trcstat_ptracer35_max        =   8.6691171288837815E-04
(PID.TID 0000.0001) %MON trcstat_ptracer35_min        =   1.9875346860532420E-20
(PID.TID 0000.0001) %MON trcstat_ptracer35_mean       =   2.5849548560089428E-05
(PID.TID 0000.0001) %MON trcstat_ptracer35_sd         =   1.3552172203867662E-04
(PID.TID 0000.0001) %MON trcstat_ptracer35_del2       =   0.0000000000000000E+00
(PID.TID 0000.0001) %MON trcstat_ptracer36_max        =   8.8365298955493524E-04
(PID.TID 0000.0001) %MON trcstat_ptracer36_min        =   1.9876591625811682E-20
(PID.TID 0000.0001) %MON trcstat_ptracer36_mean       =   2.6392417123565598E-05
(PID.TID 0000.0001) %MON trcstat_ptracer36_sd         =   1.3807504937262191E-04
(PID.TID 0000.0001) %MON trcstat_ptracer36_del2       =   0.0000000000000000E+00
(PID.TID 0000.0001) %MON trcstat_ptracer37_max        =   8.6683865037676848E-04
(PID.TID 0000.0001) %MON trcstat_ptracer37_min        =   1.9876591625811682E-20
(PID.TID 0000.0001) %MON trcstat_ptracer37_mean       =   2.5849548693715676E-05
(PID.TID 0000.0001) %MON trcstat_ptracer37_sd         =   1.3545288041183124E-04
(PID.TID 0000.0001) %MON trcstat_ptracer37_del2       =   0.0000000000000000E+00
(PID.TID 0000.0001) %MON trcstat_ptracer38_max        =   8.7257706865750365E-04
(PID.TID 0000.0001) %MON trcstat_ptracer38_min        =   1.9876591625811682E-20
(PID.TID 0000.0001) %MON trcstat_ptracer38_mean       =   2.6149117395059439E-05
(PID.TID 0000.0001) %MON trcstat_ptracer38_sd         =   1.3665403311471946E-04
(PID.TID 0000.0001) %MON trcstat_ptracer38_del2       =   0.0000000000000000E+00
(PID.TID 0000.0001) %MON trcstat_ptracer39_max        =   9.0701126600339530E-04
(PID.TID 0000.0001) %MON trcstat_ptracer39_min        =   1.9876591625811682E-20
(PID.TID 0000.0001) %MON trcstat_ptracer39_mean       =   2.7048296661747152E-05
(PID.TID 0000.0001) %MON trcstat_ptracer39_sd         =   1.4178643878850854E-04
(PID.TID 0000.0001) %MON trcstat_ptracer39_del2       =   0.0000000000000000E+00
(PID.TID 0000.0001) %MON trcstat_ptracer40_max        =   8.6691171288769998E-04
(PID.TID 0000.0001) %MON trcstat_ptracer40_min        =   1.9875346860532420E-20
(PID.TID 0000.0001) %MON trcstat_ptracer40_mean       =   2.5849550461947894E-05
(PID.TID 0000.0001) %MON trcstat_ptracer40_sd         =   1.3552172175145037E-04
(PID.TID 0000.0001) %MON trcstat_ptracer40_del2       =   0.0000000000000000E+00
(PID.TID 0000.0001) %MON trcstat_ptracer41_max        =   8.6683865037643162E-04
(PID.TID 0000.0001) %MON trcstat_ptracer41_min        =   1.9876591625811682E-20
(PID.TID 0000.0001) %MON trcstat_ptracer41_mean       =   2.5849548560079688E-05
(PID.TID 0000.0001) %MON trcstat_ptracer41_sd         =   1.3545288043727641E-04
(PID.TID 0000.0001) %MON trcstat_ptracer41_del2       =   0.0000000000000000E+00
(PID.TID 0000.0001) %MON trcstat_ptracer42_max        =   8.6691171288745257E-04
(PID.TID 0000.0001) %MON trcstat_ptracer42_min        =   1.9875346860532420E-20
(PID.TID 0000.0001) %MON trcstat_ptracer42_mean       =   2.5849549659955805E-05
(PID.TID 0000.0001) %MON trcstat_ptracer42_sd         =   1.3552172186719763E-04
(PID.TID 0000.0001) %MON trcstat_ptracer42_del2       =   0.0000000000000000E+00
(PID.TID 0000.0001) %MON trcstat_ptracer43_max        =   8.6691171288737548E-04
(PID.TID 0000.0001) %MON trcstat_ptracer43_min        =   1.9875346860532420E-20
(PID.TID 0000.0001) %MON trcstat_ptracer43_mean       =   2.5849548560058461E-05
(PID.TID 0000.0001) %MON trcstat_ptracer43_sd         =   1.3552172203852686E-04
(PID.TID 0000.0001) %MON trcstat_ptracer43_del2       =   0.0000000000000000E+00
(PID.TID 0000.0001) %MON trcstat_ptracer44_max        =   8.6691171288749919E-04
(PID.TID 0000.0001) %MON trcstat_ptracer44_min        =   1.9875346860532420E-20
(PID.TID 0000.0001) %MON trcstat_ptracer44_mean       =   2.5849548560063967E-05
(PID.TID 0000.0001) %MON trcstat_ptracer44_sd         =   1.3552172203855128E-04
(PID.TID 0000.0001) %MON trcstat_ptracer44_del2       =   0.0000000000000000E+00
(PID.TID 0000.0001) %MON trcstat_ptracer45_max        =   8.6691171288749366E-04
(PID.TID 0000.0001) %MON trcstat_ptracer45_min        =   1.9875346860532420E-20
(PID.TID 0000.0001) %MON trcstat_ptracer45_mean       =   2.5849548560063797E-05
(PID.TID 0000.0001) %MON trcstat_ptracer45_sd         =   1.3552172203855039E-04
(PID.TID 0000.0001) %MON trcstat_ptracer45_del2       =   0.0000000000000000E+00
(PID.TID 0000.0001) %MON trcstat_ptracer46_max        =   9.0451108264535897E-04
(PID.TID 0000.0001) %MON trcstat_ptracer46_min        =   1.9876591625811682E-20
(PID.TID 0000.0001) %MON trcstat_ptracer46_mean       =   2.6944515735966095E-05
(PID.TID 0000.0001) %MON trcstat_ptracer46_sd         =   1.4132260054511471E-04
(PID.TID 0000.0001) %MON trcstat_ptracer46_del2       =   0.0000000000000000E+00
(PID.TID 0000.0001) %MON trcstat_ptracer47_max        =   8.6691171288855846E-04
(PID.TID 0000.0001) %MON trcstat_ptracer47_min        =   1.9875346860532420E-20
(PID.TID 0000.0001) %MON trcstat_ptracer47_mean       =   2.5849548560094694E-05
(PID.TID 0000.0001) %MON trcstat_ptracer47_sd         =   1.3552172203870470E-04
(PID.TID 0000.0001) %MON trcstat_ptracer47_del2       =   0.0000000000000000E+00
(PID.TID 0000.0001) %MON trcstat_ptracer48_max        =   9.0566659143868553E-04
(PID.TID 0000.0001) %MON trcstat_ptracer48_min        =   1.9876591625811682E-20
(PID.TID 0000.0001) %MON trcstat_ptracer48_mean       =   2.6923060281320662E-05
(PID.TID 0000.0001) %MON trcstat_ptracer48_sd         =   1.4139956873018361E-04
(PID.TID 0000.0001) %MON trcstat_ptracer48_del2       =   0.0000000000000000E+00
(PID.TID 0000.0001) %MON trcstat_ptracer49_max        =   9.0646821085190615E-04
(PID.TID 0000.0001) %MON trcstat_ptracer49_min        =   1.9875346860532420E-20
(PID.TID 0000.0001) %MON trcstat_ptracer49_mean       =   2.6978661604391594E-05
(PID.TID 0000.0001) %MON trcstat_ptracer49_sd         =   1.4155620589646170E-04
(PID.TID 0000.0001) %MON trcstat_ptracer49_del2       =   0.0000000000000000E+00
(PID.TID 0000.0001) %MON trcstat_ptracer50_max        =   8.8762368143502661E-04
(PID.TID 0000.0001) %MON trcstat_ptracer50_min        =   1.9876591625811682E-20
(PID.TID 0000.0001) %MON trcstat_ptracer50_mean       =   2.6488248909264471E-05
(PID.TID 0000.0001) %MON trcstat_ptracer50_sd         =   1.3861298123802793E-04
(PID.TID 0000.0001) %MON trcstat_ptracer50_del2       =   0.0000000000000000E+00
(PID.TID 0000.0001) %MON trcstat_ptracer51_max        =   8.9413210791119209E-04
(PID.TID 0000.0001) %MON trcstat_ptracer51_min        =   1.9875346860532420E-20
(PID.TID 0000.0001) %MON trcstat_ptracer51_mean       =   2.6556263712837308E-05
(PID.TID 0000.0001) %MON trcstat_ptracer51_sd         =   1.3955148796025339E-04
(PID.TID 0000.0001) %MON trcstat_ptracer51_del2       =   0.0000000000000000E+00
(PID.TID 0000.0001) %MON trcstat_ptracer52_max        =   8.6691171288798730E-04
(PID.TID 0000.0001) %MON trcstat_ptracer52_min        =   1.9875346860532420E-20
(PID.TID 0000.0001) %MON trcstat_ptracer52_mean       =   2.5849548560077973E-05
(PID.TID 0000.0001) %MON trcstat_ptracer52_sd         =   1.3552172203861568E-04
(PID.TID 0000.0001) %MON trcstat_ptracer52_del2       =   0.0000000000000000E+00
(PID.TID 0000.0001) %MON trcstat_ptracer53_max        =   8.6683865064484051E-04
(PID.TID 0000.0001) %MON trcstat_ptracer53_min        =   1.9876591625811682E-20
(PID.TID 0000.0001) %MON trcstat_ptracer53_mean       =   2.5849548567579744E-05
(PID.TID 0000.0001) %MON trcstat_ptracer53_sd         =   1.3545288047764654E-04
(PID.TID 0000.0001) %MON trcstat_ptracer53_del2       =   0.0000000000000000E+00
(PID.TID 0000.0001) %MON trcstat_ptracer54_max        =   8.6691171288786218E-04
(PID.TID 0000.0001) %MON trcstat_ptracer54_min        =   1.9875346860532420E-20
(PID.TID 0000.0001) %MON trcstat_ptracer54_mean       =   2.5849548560074287E-05
(PID.TID 0000.0001) %MON trcstat_ptracer54_sd         =   1.3552172203859617E-04
(PID.TID 0000.0001) %MON trcstat_ptracer54_del2       =   0.0000000000000000E+00
(PID.TID 0000.0001) %MON trcstat_ptracer55_max        =   8.6691171288860085E-04
(PID.TID 0000.0001) %MON trcstat_ptracer55_min        =   1.9875346860532420E-20
(PID.TID 0000.0001) %MON trcstat_ptracer55_mean       =   2.5849548560095934E-05
(PID.TID 0000.0001) %MON trcstat_ptracer55_sd         =   1.3552172203871134E-04
(PID.TID 0000.0001) %MON trcstat_ptracer55_del2       =   0.0000000000000000E+00
(PID.TID 0000.0001) %MON trcstat_ptracer56_max        =   8.6691171288819221E-04
(PID.TID 0000.0001) %MON trcstat_ptracer56_min        =   1.9875346860532420E-20
(PID.TID 0000.0001) %MON trcstat_ptracer56_mean       =   2.5849548560083980E-05
(PID.TID 0000.0001) %MON trcstat_ptracer56_sd         =   1.3552172203864759E-04
(PID.TID 0000.0001) %MON trcstat_ptracer56_del2       =   0.0000000000000000E+00
(PID.TID 0000.0001) %MON trcstat_ptracer57_max        =   8.6683865064533078E-04
(PID.TID 0000.0001) %MON trcstat_ptracer57_min        =   1.9876591625811682E-20
(PID.TID 0000.0001) %MON trcstat_ptracer57_mean       =   2.5850528876170056E-05
(PID.TID 0000.0001) %MON trcstat_ptracer57_sd         =   1.3545273063400966E-04
(PID.TID 0000.0001) %MON trcstat_ptracer57_del2       =   0.0000000000000000E+00
(PID.TID 0000.0001) %MON trcstat_ptracer58_max        =   8.6691171288772644E-04
(PID.TID 0000.0001) %MON trcstat_ptracer58_min        =   1.9875346860532420E-20
(PID.TID 0000.0001) %MON trcstat_ptracer58_mean       =   2.5851111104200777E-05
(PID.TID 0000.0001) %MON trcstat_ptracer58_sd         =   1.3552150247586085E-04
(PID.TID 0000.0001) %MON trcstat_ptracer58_del2       =   0.0000000000000000E+00
(PID.TID 0000.0001) %MON trcstat_ptracer59_max        =   8.6683865037669834E-04
(PID.TID 0000.0001) %MON trcstat_ptracer59_min        =   1.9876591625811682E-20
(PID.TID 0000.0001) %MON trcstat_ptracer59_mean       =   2.5851559188314245E-05
(PID.TID 0000.0001) %MON trcstat_ptracer59_sd         =   1.3545258822547900E-04
(PID.TID 0000.0001) %MON trcstat_ptracer59_del2       =   0.0000000000000000E+00
(PID.TID 0000.0001) %MON trcstat_ptracer60_max        =   8.6691171288859196E-04
(PID.TID 0000.0001) %MON trcstat_ptracer60_min        =   1.9875346860532420E-20
(PID.TID 0000.0001) %MON trcstat_ptracer60_mean       =   2.5887251758480875E-05
(PID.TID 0000.0001) %MON trcstat_ptracer60_sd         =   1.3555043695335933E-04
(PID.TID 0000.0001) %MON trcstat_ptracer60_del2       =   0.0000000000000000E+00
(PID.TID 0000.0001) %MON trcstat_ptracer61_max        =   8.6683865037644713E-04
(PID.TID 0000.0001) %MON trcstat_ptracer61_min        =   1.9876591625811682E-20
(PID.TID 0000.0001) %MON trcstat_ptracer61_mean       =   2.5849548632449197E-05
(PID.TID 0000.0001) %MON trcstat_ptracer61_sd         =   1.3545288042346982E-04
(PID.TID 0000.0001) %MON trcstat_ptracer61_del2       =   0.0000000000000000E+00
(PID.TID 0000.0001) %MON trcstat_ptracer62_max        =   8.8274041125384827E-04
(PID.TID 0000.0001) %MON trcstat_ptracer62_min        =   1.9875346860532420E-20
(PID.TID 0000.0001) %MON trcstat_ptracer62_mean       =   2.6220601739999242E-05
(PID.TID 0000.0001) %MON trcstat_ptracer62_sd         =   1.3775181949050570E-04
(PID.TID 0000.0001) %MON trcstat_ptracer62_del2       =   0.0000000000000000E+00
(PID.TID 0000.0001) %MON trcstat_ptracer63_max        =   9.0612089918539179E-04
(PID.TID 0000.0001) %MON trcstat_ptracer63_min        =   1.9876591625811682E-20
(PID.TID 0000.0001) %MON trcstat_ptracer63_mean       =   2.6976314237800068E-05
(PID.TID 0000.0001) %MON trcstat_ptracer63_sd         =   1.4158683758808016E-04
(PID.TID 0000.0001) %MON trcstat_ptracer63_del2       =   0.0000000000000000E+00
(PID.TID 0000.0001) %MON trcstat_ptracer64_max        =   8.6683865037685489E-04
(PID.TID 0000.0001) %MON trcstat_ptracer64_min        =   1.9876591625811682E-20
(PID.TID 0000.0001) %MON trcstat_ptracer64_mean       =   2.5849548560092264E-05
(PID.TID 0000.0001) %MON trcstat_ptracer64_sd         =   1.3545288043734227E-04
(PID.TID 0000.0001) %MON trcstat_ptracer64_del2       =   0.0000000000000000E+00
(PID.TID 0000.0001) %MON trcstat_ptracer65_max        =   8.6683865037678290E-04
(PID.TID 0000.0001) %MON trcstat_ptracer65_min        =   1.9876591625811682E-20
(PID.TID 0000.0001) %MON trcstat_ptracer65_mean       =   2.5850094266099177E-05
(PID.TID 0000.0001) %MON trcstat_ptracer65_sd         =   1.3545279159934032E-04
(PID.TID 0000.0001) %MON trcstat_ptracer65_del2       =   0.0000000000000000E+00
(PID.TID 0000.0001) %MON trcstat_ptracer66_max        =   8.6683865037665779E-04
(PID.TID 0000.0001) %MON trcstat_ptracer66_min        =   1.9876591625811682E-20
(PID.TID 0000.0001) %MON trcstat_ptracer66_mean       =   2.5849548560086416E-05
(PID.TID 0000.0001) %MON trcstat_ptracer66_sd         =   1.3545288043731162E-04
(PID.TID 0000.0001) %MON trcstat_ptracer66_del2       =   0.0000000000000000E+00
(PID.TID 0000.0001) %MON trcstat_ptracer67_max        =   8.9002040101719172E-04
(PID.TID 0000.0001) %MON trcstat_ptracer67_min        =   1.9875346860532420E-20
(PID.TID 0000.0001) %MON trcstat_ptracer67_mean       =   2.6567201079945482E-05
(PID.TID 0000.0001) %MON trcstat_ptracer67_sd         =   1.3918186273234636E-04
(PID.TID 0000.0001) %MON trcstat_ptracer67_del2       =   0.0000000000000000E+00
(PID.TID 0000.0001) %MON trcstat_ptracer68_max        =   8.6691171288873258E-04
(PID.TID 0000.0001) %MON trcstat_ptracer68_min        =   1.9875346860532420E-20
(PID.TID 0000.0001) %MON trcstat_ptracer68_mean       =   2.5849548560099772E-05
(PID.TID 0000.0001) %MON trcstat_ptracer68_sd         =   1.3552172203873186E-04
(PID.TID 0000.0001) %MON trcstat_ptracer68_del2       =   0.0000000000000000E+00
(PID.TID 0000.0001) %MON trcstat_ptracer69_max        =   8.6683865064528861E-04
(PID.TID 0000.0001) %MON trcstat_ptracer69_min        =   1.9876591625811682E-20
(PID.TID 0000.0001) %MON trcstat_ptracer69_mean       =   2.5849829466590610E-05
(PID.TID 0000.0001) %MON trcstat_ptracer69_sd         =   1.3545283394126713E-04
(PID.TID 0000.0001) %MON trcstat_ptracer69_del2       =   0.0000000000000000E+00
(PID.TID 0000.0001) %MON trcstat_ptracer70_max        =   8.6683865064508022E-04
(PID.TID 0000.0001) %MON trcstat_ptracer70_min        =   1.9876591625811682E-20
(PID.TID 0000.0001) %MON trcstat_ptracer70_mean       =   2.5851870367282861E-05
(PID.TID 0000.0001) %MON trcstat_ptracer70_sd         =   1.3545255040004617E-04
(PID.TID 0000.0001) %MON trcstat_ptracer70_del2       =   0.0000000000000000E+00
(PID.TID 0000.0001) %MON trcstat_ptracer71_max        =   8.6683865037644485E-04
(PID.TID 0000.0001) %MON trcstat_ptracer71_min        =   1.9876591625811682E-20
(PID.TID 0000.0001) %MON trcstat_ptracer71_mean       =   2.5849548560080077E-05
(PID.TID 0000.0001) %MON trcstat_ptracer71_sd         =   1.3545288043727849E-04
(PID.TID 0000.0001) %MON trcstat_ptracer71_del2       =   0.0000000000000000E+00
(PID.TID 0000.0001) %MON trcstat_ptracer72_max        =   9.0709326225106883E-04
(PID.TID 0000.0001) %MON trcstat_ptracer72_min        =   1.9876591625811682E-20
(PID.TID 0000.0001) %MON trcstat_ptracer72_mean       =   2.7050616166100293E-05
(PID.TID 0000.0001) %MON trcstat_ptracer72_sd         =   1.4181231215834765E-04
(PID.TID 0000.0001) %MON trcstat_ptracer72_del2       =   0.0000000000000000E+00
(PID.TID 0000.0001) %MON trcstat_ptracer73_max        =   8.6683865064529392E-04
(PID.TID 0000.0001) %MON trcstat_ptracer73_min        =   1.9876591625811682E-20
(PID.TID 0000.0001) %MON trcstat_ptracer73_mean       =   2.5849548567593121E-05
(PID.TID 0000.0001) %MON trcstat_ptracer73_sd         =   1.3545288047771712E-04
(PID.TID 0000.0001) %MON trcstat_ptracer73_del2       =   0.0000000000000000E+00
(PID.TID 0000.0001) %MON trcstat_ptracer74_max        =   9.0595522443182974E-04
(PID.TID 0000.0001) %MON trcstat_ptracer74_min        =   1.9876591625811682E-20
(PID.TID 0000.0001) %MON trcstat_ptracer74_mean       =   2.6891328725321080E-05
(PID.TID 0000.0001) %MON trcstat_ptracer74_sd         =   1.4134366552828582E-04
(PID.TID 0000.0001) %MON trcstat_ptracer74_del2       =   0.0000000000000000E+00
(PID.TID 0000.0001) %MON trcstat_ptracer75_max        =   8.8159345798693479E-04
(PID.TID 0000.0001) %MON trcstat_ptracer75_min        =   1.9876591625811682E-20
(PID.TID 0000.0001) %MON trcstat_ptracer75_mean       =   2.6379623351328603E-05
(PID.TID 0000.0001) %MON trcstat_ptracer75_sd         =   1.3789802470132097E-04
(PID.TID 0000.0001) %MON trcstat_ptracer75_del2       =   0.0000000000000000E+00
(PID.TID 0000.0001) %MON trcstat_ptracer76_max        =   8.6683865037701536E-04
(PID.TID 0000.0001) %MON trcstat_ptracer76_min        =   1.9876591625811682E-20
(PID.TID 0000.0001) %MON trcstat_ptracer76_mean       =   2.5884842408226673E-05
(PID.TID 0000.0001) %MON trcstat_ptracer76_sd         =   1.3547025033686032E-04
(PID.TID 0000.0001) %MON trcstat_ptracer76_del2       =   0.0000000000000000E+00
(PID.TID 0000.0001) %MON trcstat_ptracer77_max        =   8.7358394922782247E-04
(PID.TID 0000.0001) %MON trcstat_ptracer77_min        =   1.9876591625811682E-20
(PID.TID 0000.0001) %MON trcstat_ptracer77_mean       =   2.6156953179513866E-05
(PID.TID 0000.0001) %MON trcstat_ptracer77_sd         =   1.3674527995683578E-04
(PID.TID 0000.0001) %MON trcstat_ptracer77_del2       =   0.0000000000000000E+00
(PID.TID 0000.0001) %MON trcstat_ptracer78_max        =   8.6683865037672858E-04
(PID.TID 0000.0001) %MON trcstat_ptracer78_min        =   1.9876591625811682E-20
(PID.TID 0000.0001) %MON trcstat_ptracer78_mean       =   2.5849548560088520E-05
(PID.TID 0000.0001) %MON trcstat_ptracer78_sd         =   1.3545288043732262E-04
(PID.TID 0000.0001) %MON trcstat_ptracer78_del2       =   0.0000000000000000E+00
(PID.TID 0000.0001) %MON trcstat_ptracer79_max        =   8.6683865037640636E-04
(PID.TID 0000.0001) %MON trcstat_ptracer79_min        =   1.9876591625811682E-20
(PID.TID 0000.0001) %MON trcstat_ptracer79_mean       =   2.5850147689206379E-05
(PID.TID 0000.0001) %MON trcstat_ptracer79_sd         =   1.3545278313550603E-04
(PID.TID 0000.0001) %MON trcstat_ptracer79_del2       =   0.0000000000000000E+00
(PID.TID 0000.0001) %MON trcstat_ptracer80_max        =   8.9186107921373559E-04
(PID.TID 0000.0001) %MON trcstat_ptracer80_min        =   1.9876591625811682E-20
(PID.TID 0000.0001) %MON trcstat_ptracer80_mean       =   2.6585541409708583E-05
(PID.TID 0000.0001) %MON trcstat_ptracer80_sd         =   1.3919428290184717E-04
(PID.TID 0000.0001) %MON trcstat_ptracer80_del2       =   0.0000000000000000E+00
(PID.TID 0000.0001) %MON trcstat_ptracer81_max        =   8.6691171288769326E-04
(PID.TID 0000.0001) %MON trcstat_ptracer81_min        =   1.9875346860532420E-20
(PID.TID 0000.0001) %MON trcstat_ptracer81_mean       =   2.5849548560069310E-05
(PID.TID 0000.0001) %MON trcstat_ptracer81_sd         =   1.3552172203856988E-04
(PID.TID 0000.0001) %MON trcstat_ptracer81_del2       =   0.0000000000000000E+00
(PID.TID 0000.0001) %MON trcstat_ptracer82_max        =   8.6683865064486978E-04
(PID.TID 0000.0001) %MON trcstat_ptracer82_min        =   1.9876591625811682E-20
(PID.TID 0000.0001) %MON trcstat_ptracer82_mean       =   2.5880060421211779E-05
(PID.TID 0000.0001) %MON trcstat_ptracer82_sd         =   1.3546432812412820E-04
(PID.TID 0000.0001) %MON trcstat_ptracer82_del2       =   0.0000000000000000E+00
(PID.TID 0000.0001) %MON trcstat_ptracer83_max        =   8.6691171288744780E-04
(PID.TID 0000.0001) %MON trcstat_ptracer83_min        =   1.9875346860532420E-20
(PID.TID 0000.0001) %MON trcstat_ptracer83_mean       =   2.5849548560060555E-05
(PID.TID 0000.0001) %MON trcstat_ptracer83_sd         =   1.3552172203853854E-04
(PID.TID 0000.0001) %MON trcstat_ptracer83_del2       =   0.0000000000000000E+00
(PID.TID 0000.0001) %MON trcstat_ptracer84_max        =   8.6683865037664835E-04
(PID.TID 0000.0001) %MON trcstat_ptracer84_min        =   1.9876591625811682E-20
(PID.TID 0000.0001) %MON trcstat_ptracer84_mean       =   2.5849548560086135E-05
(PID.TID 0000.0001) %MON trcstat_ptracer84_sd         =   1.3545288043731012E-04
(PID.TID 0000.0001) %MON trcstat_ptracer84_del2       =   0.0000000000000000E+00
(PID.TID 0000.0001) %MON trcstat_ptracer85_max        =   8.7743174236834260E-04
(PID.TID 0000.0001) %MON trcstat_ptracer85_min        =   1.9876591625811682E-20
(PID.TID 0000.0001) %MON trcstat_ptracer85_mean       =   2.6288402625387867E-05
(PID.TID 0000.0001) %MON trcstat_ptracer85_sd         =   1.3737017537964624E-04
(PID.TID 0000.0001) %MON trcstat_ptracer85_del2       =   0.0000000000000000E+00
(PID.TID 0000.0001) %MON trcstat_ptracer86_max        =   8.9676298108143804E-04
(PID.TID 0000.0001) %MON trcstat_ptracer86_min        =   1.9875346860532420E-20
(PID.TID 0000.0001) %MON trcstat_ptracer86_mean       =   2.6719078252019623E-05
(PID.TID 0000.0001) %MON trcstat_ptracer86_sd         =   1.4021702874116967E-04
(PID.TID 0000.0001) %MON trcstat_ptracer86_del2       =   0.0000000000000000E+00
(PID.TID 0000.0001) %MON trcstat_ptracer87_max        =   8.6691171288769489E-04
(PID.TID 0000.0001) %MON trcstat_ptracer87_min        =   1.9875346860532420E-20
(PID.TID 0000.0001) %MON trcstat_ptracer87_mean       =   2.5849548560070018E-05
(PID.TID 0000.0001) %MON trcstat_ptracer87_sd         =   1.3552172203858370E-04
(PID.TID 0000.0001) %MON trcstat_ptracer87_del2       =   0.0000000000000000E+00
(PID.TID 0000.0001) %MON trcstat_ptracer88_max        =   8.6691171288754343E-04
(PID.TID 0000.0001) %MON trcstat_ptracer88_min        =   1.9875346860532420E-20
(PID.TID 0000.0001) %MON trcstat_ptracer88_mean       =   2.5849573035319675E-05
(PID.TID 0000.0001) %MON trcstat_ptracer88_sd         =   1.3552171953828672E-04
(PID.TID 0000.0001) %MON trcstat_ptracer88_del2       =   0.0000000000000000E+00
(PID.TID 0000.0001) %MON trcstat_ptracer89_max        =   8.6683865064530042E-04
(PID.TID 0000.0001) %MON trcstat_ptracer89_min        =   1.9876591625811682E-20
(PID.TID 0000.0001) %MON trcstat_ptracer89_mean       =   2.5849602792832935E-05
(PID.TID 0000.0001) %MON trcstat_ptracer89_sd         =   1.3545287042149136E-04
(PID.TID 0000.0001) %MON trcstat_ptracer89_del2       =   0.0000000000000000E+00
(PID.TID 0000.0001) %MON trcstat_ptracer90_max        =   8.6691171288765076E-04
(PID.TID 0000.0001) %MON trcstat_ptracer90_min        =   1.9875346860532420E-20
(PID.TID 0000.0001) %MON trcstat_ptracer90_mean       =   2.5849548560066389E-05
(PID.TID 0000.0001) %MON trcstat_ptracer90_sd         =   1.3552172203857112E-04
(PID.TID 0000.0001) %MON trcstat_ptracer90_del2       =   0.0000000000000000E+00
(PID.TID 0000.0001) %MON trcstat_ptracer91_max        =   8.7445711502263609E-04
(PID.TID 0000.0001) %MON trcstat_ptracer91_min        =   1.9876591625811682E-20
(PID.TID 0000.0001) %MON trcstat_ptracer91_mean       =   2.6197772505395576E-05
(PID.TID 0000.0001) %MON trcstat_ptracer91_sd         =   1.3691861716045881E-04
(PID.TID 0000.0001) %MON trcstat_ptracer91_del2       =   0.0000000000000000E+00
(PID.TID 0000.0001) %MON trcstat_ptracer92_max        =   8.6683865064487509E-04
(PID.TID 0000.0001) %MON trcstat_ptracer92_min        =   1.9876591625811682E-20
(PID.TID 0000.0001) %MON trcstat_ptracer92_mean       =   2.5849548567580771E-05
(PID.TID 0000.0001) %MON trcstat_ptracer92_sd         =   1.3545288047765196E-04
(PID.TID 0000.0001) %MON trcstat_ptracer92_del2       =   0.0000000000000000E+00
(PID.TID 0000.0001) %MON trcstat_ptracer93_max        =   9.0455599106217029E-04
(PID.TID 0000.0001) %MON trcstat_ptracer93_min        =   1.9876591625811682E-20
(PID.TID 0000.0001) %MON trcstat_ptracer93_mean       =   2.6956237682796992E-05
(PID.TID 0000.0001) %MON trcstat_ptracer93_sd         =   1.4134096938923533E-04
(PID.TID 0000.0001) %MON trcstat_ptracer93_del2       =   0.0000000000000000E+00
(PID.TID 0000.0001) %MON trcstat_ptracer94_max        =   8.6692567290949966E-04
(PID.TID 0000.0001) %MON trcstat_ptracer94_min        =   1.9876591625811682E-20
(PID.TID 0000.0001) %MON trcstat_ptracer94_mean       =   2.5992238439556966E-05
(PID.TID 0000.0001) %MON trcstat_ptracer94_sd         =   1.3589455685272681E-04
(PID.TID 0000.0001) %MON trcstat_ptracer94_del2       =   0.0000000000000000E+00
(PID.TID 0000.0001) %MON trcstat_ptracer95_max        =   8.9050932985126180E-04
(PID.TID 0000.0001) %MON trcstat_ptracer95_min        =   1.9875346860532420E-20
(PID.TID 0000.0001) %MON trcstat_ptracer95_mean       =   2.6497433741396160E-05
(PID.TID 0000.0001) %MON trcstat_ptracer95_sd         =   1.3920151039912459E-04
(PID.TID 0000.0001) %MON trcstat_ptracer95_del2       =   0.0000000000000000E+00
(PID.TID 0000.0001) %MON trcstat_ptracer96_max        =   1.2365306139471575E-07
(PID.TID 0000.0001) %MON trcstat_ptracer96_min        =   9.6539308657082459E-34
(PID.TID 0000.0001) %MON trcstat_ptracer96_mean       =   1.6351651669334856E-08
(PID.TID 0000.0001) %MON trcstat_ptracer96_sd         =   2.9908444619955254E-08
(PID.TID 0000.0001) %MON trcstat_ptracer96_del2       =   0.0000000000000000E+00
(PID.TID 0000.0001) %MON trcstat_ptracer97_max        =   1.2365583012924973E-07
(PID.TID 0000.0001) %MON trcstat_ptracer97_min        =   9.6539308657108734E-34
(PID.TID 0000.0001) %MON trcstat_ptracer97_mean       =   1.6351730404448736E-08
(PID.TID 0000.0001) %MON trcstat_ptracer97_sd         =   2.9908708506557724E-08
(PID.TID 0000.0001) %MON trcstat_ptracer97_del2       =   0.0000000000000000E+00
(PID.TID 0000.0001) // =======================================================
(PID.TID 0000.0001) // End MONITOR ptracers field statistics
(PID.TID 0000.0001) // =======================================================
 Computing Diagnostic #    140  TRAC01       Counter:       1   Parms: SMR     MR      
 Computing Diagnostic #    152  TRAC02       Counter:       1   Parms: SMR     MR      
 Computing Diagnostic #    164  TRAC03       Counter:       1   Parms: SMR     MR      
 Computing Diagnostic #    176  TRAC04       Counter:       1   Parms: SMR     MR      
 Computing Diagnostic #    188  TRAC05       Counter:       1   Parms: SMR     MR      
 Computing Diagnostic #    200  TRAC06       Counter:       1   Parms: SMR     MR      
 Computing Diagnostic #    212  TRAC07       Counter:       1   Parms: SMR     MR      
 Computing Diagnostic #    224  TRAC08       Counter:       1   Parms: SMR     MR      
 Computing Diagnostic #    236  TRAC09       Counter:       1   Parms: SMR     MR      
 Computing Diagnostic #    248  TRAC10       Counter:       1   Parms: SMR     MR      
 Computing Diagnostic #    260  TRAC11       Counter:       1   Parms: SMR     MR      
 Computing Diagnostic #    272  TRAC12       Counter:       1   Parms: SMR     MR      
 Computing Diagnostic #    284  TRAC13       Counter:       1   Parms: SMR     MR      
 Computing Diagnostic #    296  TRAC14       Counter:       1   Parms: SMR     MR      
 Computing Diagnostic #    308  TRAC15       Counter:       1   Parms: SMR     MR      
 Computing Diagnostic #    320  TRAC16       Counter:       1   Parms: SMR     MR      
 Computing Diagnostic #    332  TRAC17       Counter:       1   Parms: SMR     MR      
 Computing Diagnostic #    344  TRAC18       Counter:       1   Parms: SMR     MR      
 Computing Diagnostic #    356  TRAC19       Counter:       1   Parms: SMR     MR      
 Computing Diagnostic #    368  TRAC20       Counter:       1   Parms: SMR     MR      
 Computing Diagnostic #    380  TRAC21       Counter:       1   Parms: SMR     MR      
 Computing Diagnostic #    392  TRAC22       Counter:       1   Parms: SMR     MR      
 Computing Diagnostic #    404  TRAC23       Counter:       1   Parms: SMR     MR      
 Computing Diagnostic #    416  TRAC24       Counter:       1   Parms: SMR     MR      
 Computing Diagnostic #    428  TRAC25       Counter:       1   Parms: SMR     MR      
 Computing Diagnostic #    440  TRAC26       Counter:       1   Parms: SMR     MR      
 Computing Diagnostic #    452  TRAC27       Counter:       1   Parms: SMR     MR      
 Computing Diagnostic #    464  TRAC28       Counter:       1   Parms: SMR     MR      
 Computing Diagnostic #    476  TRAC29       Counter:       1   Parms: SMR     MR      
 Computing Diagnostic #    488  TRAC30       Counter:       1   Parms: SMR     MR      
 Computing Diagnostic #    500  TRAC31       Counter:       1   Parms: SMR     MR      
 Computing Diagnostic #    512  TRAC32       Counter:       1   Parms: SMR     MR      
 Computing Diagnostic #    524  TRAC33       Counter:       1   Parms: SMR     MR      
 Computing Diagnostic #    536  TRAC34       Counter:       1   Parms: SMR     MR      
 Computing Diagnostic #    548  TRAC35       Counter:       1   Parms: SMR     MR      
 Computing Diagnostic #    560  TRAC36       Counter:       1   Parms: SMR     MR      
 Computing Diagnostic #    572  TRAC37       Counter:       1   Parms: SMR     MR      
 Computing Diagnostic #    584  TRAC38       Counter:       1   Parms: SMR     MR      
 Computing Diagnostic #    596  TRAC39       Counter:       1   Parms: SMR     MR      
 Computing Diagnostic #    608  TRAC40       Counter:       1   Parms: SMR     MR      
 Computing Diagnostic #    620  TRAC41       Counter:       1   Parms: SMR     MR      
 Computing Diagnostic #    632  TRAC42       Counter:       1   Parms: SMR     MR      
 Computing Diagnostic #    644  TRAC43       Counter:       1   Parms: SMR     MR      
 Computing Diagnostic #    656  TRAC44       Counter:       1   Parms: SMR     MR      
 Computing Diagnostic #    668  TRAC45       Counter:       1   Parms: SMR     MR      
 Computing Diagnostic #    680  TRAC46       Counter:       1   Parms: SMR     MR      
 Computing Diagnostic #    692  TRAC47       Counter:       1   Parms: SMR     MR      
 Computing Diagnostic #    704  TRAC48       Counter:       1   Parms: SMR     MR      
 Computing Diagnostic #    716  TRAC49       Counter:       1   Parms: SMR     MR      
 Computing Diagnostic #    728  TRAC50       Counter:       1   Parms: SMR     MR      
 Computing Diagnostic #    740  TRAC51       Counter:       1   Parms: SMR     MR      
 Computing Diagnostic #    752  TRAC52       Counter:       1   Parms: SMR     MR      
 Computing Diagnostic #    764  TRAC53       Counter:       1   Parms: SMR     MR      
 Computing Diagnostic #    776  TRAC54       Counter:       1   Parms: SMR     MR      
 Computing Diagnostic #    788  TRAC55       Counter:       1   Parms: SMR     MR      
 Computing Diagnostic #    800  TRAC56       Counter:       1   Parms: SMR     MR      
 Computing Diagnostic #    812  TRAC57       Counter:       1   Parms: SMR     MR      
 Computing Diagnostic #    824  TRAC58       Counter:       1   Parms: SMR     MR      
 Computing Diagnostic #    836  TRAC59       Counter:       1   Parms: SMR     MR      
 Computing Diagnostic #    848  TRAC60       Counter:       1   Parms: SMR     MR      
 Computing Diagnostic #    860  TRAC61       Counter:       1   Parms: SMR     MR      
 Computing Diagnostic #    872  TRAC62       Counter:       1   Parms: SMR     MR      
 Computing Diagnostic #    884  TRAC63       Counter:       1   Parms: SMR     MR      
 Computing Diagnostic #    896  TRAC64       Counter:       1   Parms: SMR     MR      
 Computing Diagnostic #    908  TRAC65       Counter:       1   Parms: SMR     MR      
 Computing Diagnostic #    920  TRAC66       Counter:       1   Parms: SMR     MR      
 Computing Diagnostic #    932  TRAC67       Counter:       1   Parms: SMR     MR      
 Computing Diagnostic #    944  TRAC68       Counter:       1   Parms: SMR     MR      
 Computing Diagnostic #    956  TRAC69       Counter:       1   Parms: SMR     MR      
 Computing Diagnostic #    968  TRAC70       Counter:       1   Parms: SMR     MR      
 Computing Diagnostic #    980  TRAC71       Counter:       1   Parms: SMR     MR      
 Computing Diagnostic #    992  TRAC72       Counter:       1   Parms: SMR     MR      
 Computing Diagnostic #   1004  TRAC73       Counter:       1   Parms: SMR     MR      
 Computing Diagnostic #   1016  TRAC74       Counter:       1   Parms: SMR     MR      
 Computing Diagnostic #   1028  TRAC75       Counter:       1   Parms: SMR     MR      
 Computing Diagnostic #   1040  TRAC76       Counter:       1   Parms: SMR     MR      
 Computing Diagnostic #   1052  TRAC77       Counter:       1   Parms: SMR     MR      
 Computing Diagnostic #   1064  TRAC78       Counter:       1   Parms: SMR     MR      
 Computing Diagnostic #   1076  TRAC79       Counter:       1   Parms: SMR     MR      
 Computing Diagnostic #   1088  TRAC80       Counter:       1   Parms: SMR     MR      
 Computing Diagnostic #   1100  TRAC81       Counter:       1   Parms: SMR     MR      
 Computing Diagnostic #   1112  TRAC82       Counter:       1   Parms: SMR     MR      
 Computing Diagnostic #   1124  TRAC83       Counter:       1   Parms: SMR     MR      
 Computing Diagnostic #   1136  TRAC84       Counter:       1   Parms: SMR     MR      
 Computing Diagnostic #   1148  TRAC85       Counter:       1   Parms: SMR     MR      
 Computing Diagnostic #   1160  TRAC86       Counter:       1   Parms: SMR     MR      
 Computing Diagnostic #   1172  TRAC87       Counter:       1   Parms: SMR     MR      
 Computing Diagnostic #   1184  TRAC88       Counter:       1   Parms: SMR     MR      
 Computing Diagnostic #   1196  TRAC89       Counter:       1   Parms: SMR     MR      
 Computing Diagnostic #   1208  TRAC90       Counter:       1   Parms: SMR     MR      
 Computing Diagnostic #   1220  TRAC91       Counter:       1   Parms: SMR     MR      
 Computing Diagnostic #   1232  TRAC92       Counter:       1   Parms: SMR     MR      
 Computing Diagnostic #   1244  TRAC93       Counter:       1   Parms: SMR     MR      
 Computing Diagnostic #   1256  TRAC94       Counter:       1   Parms: SMR     MR      
 Computing Diagnostic #   1268  TRAC95       Counter:       1   Parms: SMR     MR      
 Computing Diagnostic #   1280  TRAC96       Counter:       1   Parms: SMR     MR      
 Computing Diagnostic #   1292  TRAC97       Counter:       1   Parms: SMR     MR      
 Computing Diagnostic #   1309  PAR01        Counter:       1   Parms: SM P    MR      
 Computing Diagnostic #   1306  exfPAR       Counter:       1   Parms: SM P    MR      
(PID.TID 0000.0001) %CHECKPOINT         4 ckptA
(PID.TID 0000.0001)   Seconds in section "ALL                    [THE_MODEL_MAIN]":
(PID.TID 0000.0001)           User time:   2.4900000000000002
(PID.TID 0000.0001)         System time:  0.17000000000000001
(PID.TID 0000.0001)     Wall clock time:   75.279022932052612
(PID.TID 0000.0001)          No. starts:           1
(PID.TID 0000.0001)           No. stops:           1
(PID.TID 0000.0001)   Seconds in section "INITIALISE_FIXED       [THE_MODEL_MAIN]":
(PID.TID 0000.0001)           User time:  0.52000000000000002
(PID.TID 0000.0001)         System time:   2.0000000000000000E-002
(PID.TID 0000.0001)     Wall clock time:   1.6783499717712402
(PID.TID 0000.0001)          No. starts:           1
(PID.TID 0000.0001)           No. stops:           1
(PID.TID 0000.0001)   Seconds in section "THE_MAIN_LOOP          [THE_MODEL_MAIN]":
(PID.TID 0000.0001)           User time:   1.9700000000000002
(PID.TID 0000.0001)         System time:  0.15000000000000002
(PID.TID 0000.0001)     Wall clock time:   73.600095987319946
(PID.TID 0000.0001)          No. starts:           1
(PID.TID 0000.0001)           No. stops:           1
(PID.TID 0000.0001)   Seconds in section "INITIALISE_VARIA    [THE_MAIN_LOOP]":
(PID.TID 0000.0001)           User time:   7.9999999999999960E-002
(PID.TID 0000.0001)         System time:   3.0000000000000002E-002
(PID.TID 0000.0001)     Wall clock time:   5.2183558940887451
(PID.TID 0000.0001)          No. starts:           1
(PID.TID 0000.0001)           No. stops:           1
(PID.TID 0000.0001)   Seconds in section "MAIN LOOP           [THE_MAIN_LOOP]":
(PID.TID 0000.0001)           User time:   1.8900000000000001
(PID.TID 0000.0001)         System time:  0.12000000000000001
(PID.TID 0000.0001)     Wall clock time:   68.381702184677124
(PID.TID 0000.0001)          No. starts:           1
(PID.TID 0000.0001)           No. stops:           1
(PID.TID 0000.0001)   Seconds in section "FORWARD_STEP        [THE_MAIN_LOOP]":
(PID.TID 0000.0001)           User time:   1.8900000000000001
(PID.TID 0000.0001)         System time:  0.12000000000000000
(PID.TID 0000.0001)     Wall clock time:   68.381651163101196
(PID.TID 0000.0001)          No. starts:           4
(PID.TID 0000.0001)           No. stops:           4
(PID.TID 0000.0001)   Seconds in section "DO_STATEVARS_DIAGS  [FORWARD_STEP]":
(PID.TID 0000.0001)           User time:   0.0000000000000000
(PID.TID 0000.0001)         System time:   0.0000000000000000
(PID.TID 0000.0001)     Wall clock time:   6.7322254180908203E-003
(PID.TID 0000.0001)          No. starts:           8
(PID.TID 0000.0001)           No. stops:           8
(PID.TID 0000.0001)   Seconds in section "LOAD_FIELDS_DRIVER  [FORWARD_STEP]":
(PID.TID 0000.0001)           User time:   1.0000000000000231E-002
(PID.TID 0000.0001)         System time:   0.0000000000000000
(PID.TID 0000.0001)     Wall clock time:   9.2182159423828125E-002
(PID.TID 0000.0001)          No. starts:           4
(PID.TID 0000.0001)           No. stops:           4
(PID.TID 0000.0001)   Seconds in section "EXF_GETFORCING     [LOAD_FLDS_DRIVER]":
(PID.TID 0000.0001)           User time:   0.0000000000000000
(PID.TID 0000.0001)         System time:   0.0000000000000000
(PID.TID 0000.0001)     Wall clock time:   2.5191307067871094E-003
(PID.TID 0000.0001)          No. starts:           4
(PID.TID 0000.0001)           No. stops:           4
(PID.TID 0000.0001)   Seconds in section "EXTERNAL_FLDS_LOAD [LOAD_FLDS_DRIVER]":
(PID.TID 0000.0001)           User time:   0.0000000000000000
(PID.TID 0000.0001)         System time:   0.0000000000000000
(PID.TID 0000.0001)     Wall clock time:   2.7203559875488281E-004
(PID.TID 0000.0001)          No. starts:           4
(PID.TID 0000.0001)           No. stops:           4
(PID.TID 0000.0001)   Seconds in section "DO_ATMOSPHERIC_PHYS [FORWARD_STEP]":
(PID.TID 0000.0001)           User time:   0.0000000000000000
(PID.TID 0000.0001)         System time:   0.0000000000000000
(PID.TID 0000.0001)     Wall clock time:   5.1021575927734375E-005
(PID.TID 0000.0001)          No. starts:           4
(PID.TID 0000.0001)           No. stops:           4
(PID.TID 0000.0001)   Seconds in section "DO_OCEANIC_PHYS     [FORWARD_STEP]":
(PID.TID 0000.0001)           User time:   0.0000000000000000
(PID.TID 0000.0001)         System time:   0.0000000000000000
(PID.TID 0000.0001)     Wall clock time:   1.0960102081298828E-003
(PID.TID 0000.0001)          No. starts:           4
(PID.TID 0000.0001)           No. stops:           4
(PID.TID 0000.0001)   Seconds in section "GCHEM_CALC_TENDENCY [FORWARD_STEP]":
(PID.TID 0000.0001)           User time:   0.0000000000000000
(PID.TID 0000.0001)         System time:   0.0000000000000000
(PID.TID 0000.0001)     Wall clock time:   4.3869018554687500E-005
(PID.TID 0000.0001)          No. starts:           4
(PID.TID 0000.0001)           No. stops:           4
(PID.TID 0000.0001)   Seconds in section "THERMODYNAMICS      [FORWARD_STEP]":
(PID.TID 0000.0001)           User time:  0.23999999999999977
(PID.TID 0000.0001)         System time:   0.0000000000000000
(PID.TID 0000.0001)     Wall clock time:  0.23207211494445801
(PID.TID 0000.0001)          No. starts:           4
(PID.TID 0000.0001)           No. stops:           4
(PID.TID 0000.0001)   Seconds in section "TRC_CORRECTION_STEP [FORWARD_STEP]":
(PID.TID 0000.0001)           User time:   0.0000000000000000
(PID.TID 0000.0001)         System time:   0.0000000000000000
(PID.TID 0000.0001)     Wall clock time:   1.6270875930786133E-002
(PID.TID 0000.0001)          No. starts:           4
(PID.TID 0000.0001)           No. stops:           4
(PID.TID 0000.0001)   Seconds in section "GCHEM_FORCING_SEP  [FORWARD_STEP]":
(PID.TID 0000.0001)           User time:  0.23999999999999977
(PID.TID 0000.0001)         System time:   1.0000000000000009E-002
(PID.TID 0000.0001)     Wall clock time:  0.25863409042358398
(PID.TID 0000.0001)          No. starts:           4
(PID.TID 0000.0001)           No. stops:           4
(PID.TID 0000.0001)   Seconds in section "DARWIN_FORCING [GCHEM_FORCING_SEP]":
(PID.TID 0000.0001)           User time:  0.23999999999999977
(PID.TID 0000.0001)         System time:   1.0000000000000009E-002
(PID.TID 0000.0001)     Wall clock time:  0.25167775154113770
(PID.TID 0000.0001)          No. starts:           4
(PID.TID 0000.0001)           No. stops:           4
(PID.TID 0000.0001)   Seconds in section "DARWIN_LIGHT [DARWIN_FORCING]":
(PID.TID 0000.0001)           User time:   4.0000000000000480E-002
(PID.TID 0000.0001)         System time:   0.0000000000000000
(PID.TID 0000.0001)     Wall clock time:   4.0319681167602539E-002
(PID.TID 0000.0001)          No. starts:           4
(PID.TID 0000.0001)           No. stops:           4
(PID.TID 0000.0001)   Seconds in section "DARWIN_FE_CHEM1 [DARWIN_FORCING]":
(PID.TID 0000.0001)           User time:   0.0000000000000000
(PID.TID 0000.0001)         System time:   0.0000000000000000
(PID.TID 0000.0001)     Wall clock time:   8.2969665527343750E-005
(PID.TID 0000.0001)          No. starts:           4
(PID.TID 0000.0001)           No. stops:           4
(PID.TID 0000.0001)   Seconds in section "DARWIN_MODEL [DARWIN_FORCING]":
(PID.TID 0000.0001)           User time:  0.18999999999999950
(PID.TID 0000.0001)         System time:   0.0000000000000000
(PID.TID 0000.0001)     Wall clock time:  0.19309091567993164
(PID.TID 0000.0001)          No. starts:           4
(PID.TID 0000.0001)           No. stops:           4
(PID.TID 0000.0001)   Seconds in section "DARWIN_GRAZING [DARWIN_FORCING]":
(PID.TID 0000.0001)           User time:   0.0000000000000000
(PID.TID 0000.0001)         System time:   0.0000000000000000
(PID.TID 0000.0001)     Wall clock time:   2.2356510162353516E-003
(PID.TID 0000.0001)          No. starts:           4
(PID.TID 0000.0001)           No. stops:           4
(PID.TID 0000.0001)   Seconds in section "DARWIN_SINKING [DARWIN_FORCING]":
(PID.TID 0000.0001)           User time:   9.9999999999997868E-003
(PID.TID 0000.0001)         System time:   1.0000000000000009E-002
(PID.TID 0000.0001)     Wall clock time:   1.5369176864624023E-002
(PID.TID 0000.0001)          No. starts:           4
(PID.TID 0000.0001)           No. stops:           4
(PID.TID 0000.0001)   Seconds in section "DIAGS_FILL [DARWIN_FORCING]":
(PID.TID 0000.0001)           User time:   0.0000000000000000
(PID.TID 0000.0001)         System time:   0.0000000000000000
(PID.TID 0000.0001)     Wall clock time:   2.8276443481445313E-004
(PID.TID 0000.0001)          No. starts:           4
(PID.TID 0000.0001)           No. stops:           4
(PID.TID 0000.0001)   Seconds in section "DARWIN_FE_CHEM1 [GCHEM_FORCING_SEP]":
(PID.TID 0000.0001)           User time:   0.0000000000000000
(PID.TID 0000.0001)         System time:   0.0000000000000000
(PID.TID 0000.0001)     Wall clock time:   7.7962875366210938E-005
(PID.TID 0000.0001)          No. starts:           4
(PID.TID 0000.0001)           No. stops:           4
(PID.TID 0000.0001)   Seconds in section "BLOCKING_EXCHANGES  [FORWARD_STEP]":
(PID.TID 0000.0001)           User time:   3.0000000000000249E-002
(PID.TID 0000.0001)         System time:   0.0000000000000000
(PID.TID 0000.0001)     Wall clock time:   1.3053894042968750E-002
(PID.TID 0000.0001)          No. starts:           4
(PID.TID 0000.0001)           No. stops:           4
(PID.TID 0000.0001)   Seconds in section "DO_STATEVARS_TAVE   [FORWARD_STEP]":
(PID.TID 0000.0001)           User time:   0.0000000000000000
(PID.TID 0000.0001)         System time:   0.0000000000000000
(PID.TID 0000.0001)     Wall clock time:   1.2800693511962891E-003
(PID.TID 0000.0001)          No. starts:           4
(PID.TID 0000.0001)           No. stops:           4
(PID.TID 0000.0001)   Seconds in section "MONITOR             [FORWARD_STEP]":
(PID.TID 0000.0001)           User time:   0.0000000000000000
(PID.TID 0000.0001)         System time:   0.0000000000000000
(PID.TID 0000.0001)     Wall clock time:   4.1584968566894531E-003
(PID.TID 0000.0001)          No. starts:           4
(PID.TID 0000.0001)           No. stops:           4
(PID.TID 0000.0001)   Seconds in section "DO_THE_MODEL_IO     [FORWARD_STEP]":
(PID.TID 0000.0001)           User time:   1.3600000000000003
(PID.TID 0000.0001)         System time:  0.11000000000000004
(PID.TID 0000.0001)     Wall clock time:   67.750399112701416
(PID.TID 0000.0001)          No. starts:           4
(PID.TID 0000.0001)           No. stops:           4
(PID.TID 0000.0001)   Seconds in section "DO_WRITE_PICKUP     [FORWARD_STEP]":
(PID.TID 0000.0001)           User time:   1.0000000000000231E-002
(PID.TID 0000.0001)         System time:   0.0000000000000000
(PID.TID 0000.0001)     Wall clock time:   5.0020217895507813E-003
(PID.TID 0000.0001)          No. starts:           4
(PID.TID 0000.0001)           No. stops:           4
(PID.TID 0000.0001) // ======================================================
(PID.TID 0000.0001) // Tile <-> Tile communication statistics
(PID.TID 0000.0001) // ======================================================
(PID.TID 0000.0001) // o Tile number: 000001
(PID.TID 0000.0001) //         No. X exchanges =              0
(PID.TID 0000.0001) //            Max. X spins =              0
(PID.TID 0000.0001) //            Min. X spins =     1000000000
(PID.TID 0000.0001) //          Total. X spins =              0
(PID.TID 0000.0001) //            Avg. X spins =       0.00E+00
(PID.TID 0000.0001) //         No. Y exchanges =              0
(PID.TID 0000.0001) //            Max. Y spins =              0
(PID.TID 0000.0001) //            Min. Y spins =     1000000000
(PID.TID 0000.0001) //          Total. Y spins =              0
(PID.TID 0000.0001) //            Avg. Y spins =       0.00E+00
(PID.TID 0000.0001) // o Thread number: 000001
(PID.TID 0000.0001) //            No. barriers =          21466
(PID.TID 0000.0001) //      Max. barrier spins =              1
(PID.TID 0000.0001) //      Min. barrier spins =              1
(PID.TID 0000.0001) //     Total barrier spins =          21466
(PID.TID 0000.0001) //      Avg. barrier spins =       1.00E+00
PROGRAM MAIN: Execution ended Normally
